
OS:Version,
  {6e35c88d-bcd3-4c90-b199-980f9dcdf0b4}, !- Handle
  2.8.0;                                  !- Version Identifier

OS:WeatherFile,
  {5b7f5b84-00ca-41b2-9c3b-2a2bf81b77b3}, !- Handle
  Climate Zone 1,                         !- City
  CA,                                     !- State Province Region
  USA,                                    !- Country
  CTZRV2,                                 !- Data Source
  725945,                                 !- WMO Number
  40.8,                                   !- Latitude {deg}
  -124.2,                                 !- Longitude {deg}
  -8,                                     !- Time Zone {hr}
  13,                                     !- Elevation {m}
  file:///D:/DevWorkSpace/BuildSyncProject/spec/weather/CZ01RV2.epw, !- Url
  ;                                       !- Checksum

OS:Site,
  {0c62aafc-7981-4dbe-ad6e-e2035b1f5087}, !- Handle
  Climate Zone 1_CA_USA,                  !- Name
  40.8,                                   !- Latitude {deg}
  -124.2,                                 !- Longitude {deg}
  -8,                                     !- Time Zone {hr}
  13,                                     !- Elevation {m}
  ;                                       !- Terrain

OS:Site:WaterMainsTemperature,
  {dcc3e218-a417-4023-a7e3-7679a72a2742}, !- Handle
  Correlation,                            !- Calculation Method
  ,                                       !- Temperature Schedule Name
  11.9916666666667,                       !- Annual Average Outdoor Air Temperature {C}
  5.2;                                    !- Maximum Difference In Monthly Average Outdoor Air Temperatures {deltaC}

OS:SizingPeriod:DesignDay,
  {9629a515-ca6c-4fbc-98e3-70a8322af910}, !- Handle
  Climate Zone 1 Ann Htg 99.6% Condns DB, !- Name
  -0.6,                                   !- Maximum Dry-Bulb Temperature {C}
  0,                                      !- Daily Dry-Bulb Temperature Range {deltaC}
  -0.6,                                   !- Humidity Indicating Conditions at Maximum Dry-Bulb
  101169,                                 !- Barometric Pressure {Pa}
  2,                                      !- Wind Speed {m/s}
  90,                                     !- Wind Direction {deg}
  0,                                      !- Sky Clearness
  0,                                      !- Rain Indicator
  0,                                      !- Snow Indicator
  21,                                     !- Day of Month
  12,                                     !- Month
  WinterDesignDay,                        !- Day Type
  0,                                      !- Daylight Saving Time Indicator
  Wetbulb,                                !- Humidity Indicating Type
  ,                                       !- Humidity Indicating Day Schedule Name
  DefaultMultipliers,                     !- Dry-Bulb Temperature Range Modifier Type
  ,                                       !- Dry-Bulb Temperature Range Modifier Schedule Name
  ASHRAEClearSky;                         !- Solar Model Indicator

OS:SizingPeriod:DesignDay,
  {7503a839-68c4-4725-a58a-c4623f5a543b}, !- Handle
  Climate Zone 1 Ann Clg .4% Condns WB=>MDB, !- Name
  19.5,                                   !- Maximum Dry-Bulb Temperature {C}
  6.5,                                    !- Daily Dry-Bulb Temperature Range {deltaC}
  16.8,                                   !- Humidity Indicating Conditions at Maximum Dry-Bulb
  101169,                                 !- Barometric Pressure {Pa}
  4.3,                                    !- Wind Speed {m/s}
  320,                                    !- Wind Direction {deg}
  0,                                      !- Sky Clearness
  0,                                      !- Rain Indicator
  0,                                      !- Snow Indicator
  21,                                     !- Day of Month
  8,                                      !- Month
  SummerDesignDay,                        !- Day Type
  0,                                      !- Daylight Saving Time Indicator
  Wetbulb,                                !- Humidity Indicating Type
  ,                                       !- Humidity Indicating Day Schedule Name
  DefaultMultipliers,                     !- Dry-Bulb Temperature Range Modifier Type
  ,                                       !- Dry-Bulb Temperature Range Modifier Schedule Name
  ASHRAETau,                              !- Solar Model Indicator
  ,                                       !- Beam Solar Day Schedule Name
  ,                                       !- Diffuse Solar Day Schedule Name
  0.365,                                  !- ASHRAE Taub {dimensionless}
  2.513;                                  !- ASHRAE Taud {dimensionless}

OS:SizingPeriod:DesignDay,
  {20440b80-6148-4597-9580-cc277612c693}, !- Handle
  Climate Zone 1 Ann Clg .4% Condns DB=>MWB, !- Name
  21.6,                                   !- Maximum Dry-Bulb Temperature {C}
  6.5,                                    !- Daily Dry-Bulb Temperature Range {deltaC}
  15.2,                                   !- Humidity Indicating Conditions at Maximum Dry-Bulb
  101169,                                 !- Barometric Pressure {Pa}
  4.3,                                    !- Wind Speed {m/s}
  320,                                    !- Wind Direction {deg}
  0,                                      !- Sky Clearness
  0,                                      !- Rain Indicator
  0,                                      !- Snow Indicator
  21,                                     !- Day of Month
  8,                                      !- Month
  SummerDesignDay,                        !- Day Type
  0,                                      !- Daylight Saving Time Indicator
  Wetbulb,                                !- Humidity Indicating Type
  ,                                       !- Humidity Indicating Day Schedule Name
  DefaultMultipliers,                     !- Dry-Bulb Temperature Range Modifier Type
  ,                                       !- Dry-Bulb Temperature Range Modifier Schedule Name
  ASHRAETau,                              !- Solar Model Indicator
  ,                                       !- Beam Solar Day Schedule Name
  ,                                       !- Diffuse Solar Day Schedule Name
  0.365,                                  !- ASHRAE Taub {dimensionless}
  2.513;                                  !- ASHRAE Taud {dimensionless}

OS:ClimateZones,
  {c95a5433-f6f6-48d7-9851-97ff2f4fa480}, !- Handle
  ,                                       !- Active Institution
  ,                                       !- Active Year
  ASHRAE,                                 !- Climate Zone Institution Name 1
  ANSI/ASHRAE Standard 169,               !- Climate Zone Document Name 1
  2006,                                   !- Climate Zone Document Year 1
  4A;                                     !- Climate Zone Value 1

OS:YearDescription,
  {b7478416-b8aa-400c-81d2-bfed1c093099}, !- Handle
  2019,                                   !- Calendar Year
  ,                                       !- Day of Week for Start Day
  ;                                       !- Is Leap Year

OS:SpaceType,
  {886bb45f-e263-44d3-9779-cf7497f01ae4}, !- Handle
  Retail Back_Space,                      !- Name
  ,                                       !- Default Construction Set Name
  ,                                       !- Default Schedule Set Name
  {adc67213-b388-46f4-9338-46b3bbd9885f}, !- Group Rendering Name
  ,                                       !- Design Specification Outdoor Air Object Name
  ,                                       !- Standards Template
  Retail,                                 !- Standards Building Type
  Back_Space;                             !- Standards Space Type

OS:Rendering:Color,
  {adc67213-b388-46f4-9338-46b3bbd9885f}, !- Handle
  Retail Back_Space,                      !- Name
  120,                                    !- Rendering Red Value
  149,                                    !- Rendering Green Value
  230;                                    !- Rendering Blue Value

OS:SpaceType,
  {3dca3f34-d6a3-45f3-bd01-d9d00c97aafd}, !- Handle
  Retail Entry,                           !- Name
  ,                                       !- Default Construction Set Name
  ,                                       !- Default Schedule Set Name
  {45cf7511-50c8-431d-b002-6cafa9aeb97b}, !- Group Rendering Name
  ,                                       !- Design Specification Outdoor Air Object Name
  ,                                       !- Standards Template
  Retail,                                 !- Standards Building Type
  Entry;                                  !- Standards Space Type

OS:Rendering:Color,
  {45cf7511-50c8-431d-b002-6cafa9aeb97b}, !- Handle
  Retail Entry,                           !- Name
  169,                                    !- Rendering Red Value
  31,                                     !- Rendering Green Value
  31;                                     !- Rendering Blue Value

OS:SpaceType,
  {480f5bb3-9eef-4ee6-93fb-5b1fd70ab332}, !- Handle
  Retail Point_of_Sale,                   !- Name
  ,                                       !- Default Construction Set Name
  ,                                       !- Default Schedule Set Name
  {1cb845be-089e-4094-94bb-57590829929f}, !- Group Rendering Name
  ,                                       !- Design Specification Outdoor Air Object Name
  ,                                       !- Standards Template
  Retail,                                 !- Standards Building Type
  Point_of_Sale;                          !- Standards Space Type

OS:Rendering:Color,
  {1cb845be-089e-4094-94bb-57590829929f}, !- Handle
  Retail Point_of_Sale,                   !- Name
  171,                                    !- Rendering Red Value
  222,                                    !- Rendering Green Value
  78;                                     !- Rendering Blue Value

OS:SpaceType,
  {3eb09827-7560-48d1-9f99-b338818dcb35}, !- Handle
  Retail Retail,                          !- Name
  ,                                       !- Default Construction Set Name
  ,                                       !- Default Schedule Set Name
  {c3d0b5de-6f16-4d9d-b6c5-5537117421ac}, !- Group Rendering Name
  ,                                       !- Design Specification Outdoor Air Object Name
  ,                                       !- Standards Template
  Retail,                                 !- Standards Building Type
  Retail;                                 !- Standards Space Type

OS:Rendering:Color,
  {c3d0b5de-6f16-4d9d-b6c5-5537117421ac}, !- Handle
  Retail Retail,                          !- Name
  171,                                    !- Rendering Red Value
  222,                                    !- Rendering Green Value
  78;                                     !- Rendering Blue Value

OS:Building,
  {e1c8c8ce-d762-4eda-a163-7e14c9f140e3}, !- Handle
  DOE Ref 1980-2004|RetailStandalone,     !- Name
  ,                                       !- Building Sector Type
  ,                                       !- North Axis {deg}
  ,                                       !- Nominal Floor to Floor Height {m}
  ,                                       !- Space Type Name
  ,                                       !- Default Construction Set Name
  ;                                       !- Default Schedule Set Name

OS:BuildingStory,
  {bed75b7f-543f-4736-a8b1-d9a43b0eea13}, !- Handle
  Story Ground,                           !- Name
  0,                                      !- Nominal Z Coordinate {m}
  6.096,                                  !- Nominal Floor to Floor Height {m}
  ,                                       !- Default Construction Set Name
  ,                                       !- Default Schedule Set Name
  ;                                       !- Group Rendering Name

OS:Space,
  {18b968f3-3db6-4fe6-bfb5-7cb4e34232a5}, !- Handle
  Retail Retail A end_a - Story Ground,   !- Name
  {3eb09827-7560-48d1-9f99-b338818dcb35}, !- Space Type Name
  ,                                       !- Default Construction Set Name
  ,                                       !- Default Schedule Set Name
  -0,                                     !- Direction of Relative North {deg}
  -24.384,                                !- X Origin {m}
  -19.05,                                 !- Y Origin {m}
  0,                                      !- Z Origin {m}
  {bed75b7f-543f-4736-a8b1-d9a43b0eea13}, !- Building Story Name
  {08b3c055-bff8-45b1-9fc1-e0581d7179d4}; !- Thermal Zone Name

OS:Surface,
  {c07f6449-7225-4f9b-97c2-230f41dd3f30}, !- Handle
  Surface 1,                              !- Name
  Floor,                                  !- Surface Type
  ,                                       !- Construction Name
  {18b968f3-3db6-4fe6-bfb5-7cb4e34232a5}, !- Space Name
  Ground,                                 !- Outside Boundary Condition
  ,                                       !- Outside Boundary Condition Object
  NoSun,                                  !- Sun Exposure
  NoWind,                                 !- Wind Exposure
  ,                                       !- View Factor to Ground
  ,                                       !- Number of Vertices
  0, 0, 0,                                !- X,Y,Z Vertex 1 {m}
  0, 4.572, 0,                            !- X,Y,Z Vertex 2 {m}
  4.572, 4.572, 0,                        !- X,Y,Z Vertex 3 {m}
  4.572, 0, 0;                            !- X,Y,Z Vertex 4 {m}

OS:Surface,
  {acea8bff-1fdf-406c-9bce-bf55af856d1d}, !- Handle
  Surface 2,                              !- Name
  Wall,                                   !- Surface Type
  ,                                       !- Construction Name
  {18b968f3-3db6-4fe6-bfb5-7cb4e34232a5}, !- Space Name
  Outdoors,                               !- Outside Boundary Condition
  ,                                       !- Outside Boundary Condition Object
  SunExposed,                             !- Sun Exposure
  WindExposed,                            !- Wind Exposure
  ,                                       !- View Factor to Ground
  ,                                       !- Number of Vertices
  0, 4.572, 6.096,                        !- X,Y,Z Vertex 1 {m}
  0, 4.572, 0,                            !- X,Y,Z Vertex 2 {m}
  0, 0, 0,                                !- X,Y,Z Vertex 3 {m}
  0, 0, 6.096;                            !- X,Y,Z Vertex 4 {m}

OS:Surface,
  {e690f076-6989-4561-b722-135ca31be310}, !- Handle
  Surface 3,                              !- Name
  Wall,                                   !- Surface Type
  ,                                       !- Construction Name
  {18b968f3-3db6-4fe6-bfb5-7cb4e34232a5}, !- Space Name
  Surface,                                !- Outside Boundary Condition
  {6e8015dc-b684-461d-8782-9d602a4a667a}, !- Outside Boundary Condition Object
  NoSun,                                  !- Sun Exposure
  NoWind,                                 !- Wind Exposure
  ,                                       !- View Factor to Ground
  ,                                       !- Number of Vertices
  4.572, 4.572, 6.096,                    !- X,Y,Z Vertex 1 {m}
  4.572, 4.572, 0,                        !- X,Y,Z Vertex 2 {m}
  0, 4.572, 0,                            !- X,Y,Z Vertex 3 {m}
  0, 4.572, 6.096;                        !- X,Y,Z Vertex 4 {m}

OS:Surface,
  {00efed4c-b35e-4e32-931c-204b519a7d00}, !- Handle
  Surface 4,                              !- Name
  Wall,                                   !- Surface Type
  ,                                       !- Construction Name
  {18b968f3-3db6-4fe6-bfb5-7cb4e34232a5}, !- Space Name
  Surface,                                !- Outside Boundary Condition
  {64c5b546-c248-474c-a6e0-289b32bd8929}, !- Outside Boundary Condition Object
  NoSun,                                  !- Sun Exposure
  NoWind,                                 !- Wind Exposure
  ,                                       !- View Factor to Ground
  ,                                       !- Number of Vertices
  4.572, 0, 6.096,                        !- X,Y,Z Vertex 1 {m}
  4.572, 0, 0,                            !- X,Y,Z Vertex 2 {m}
  4.572, 4.572, 0,                        !- X,Y,Z Vertex 3 {m}
  4.572, 4.572, 6.096;                    !- X,Y,Z Vertex 4 {m}

OS:Surface,
  {d9131a24-06cf-4ac8-beab-19538dcfef52}, !- Handle
  Surface 5,                              !- Name
  Wall,                                   !- Surface Type
  ,                                       !- Construction Name
  {18b968f3-3db6-4fe6-bfb5-7cb4e34232a5}, !- Space Name
  Outdoors,                               !- Outside Boundary Condition
  ,                                       !- Outside Boundary Condition Object
  SunExposed,                             !- Sun Exposure
  WindExposed,                            !- Wind Exposure
  ,                                       !- View Factor to Ground
  ,                                       !- Number of Vertices
  0, 0, 6.096,                            !- X,Y,Z Vertex 1 {m}
  0, 0, 0,                                !- X,Y,Z Vertex 2 {m}
  4.572, 0, 0,                            !- X,Y,Z Vertex 3 {m}
  4.572, 0, 6.096;                        !- X,Y,Z Vertex 4 {m}

OS:Surface,
  {6b3b82ce-97ed-4029-a7e3-2898d12fc1d3}, !- Handle
  Surface 6,                              !- Name
  RoofCeiling,                            !- Surface Type
  ,                                       !- Construction Name
  {18b968f3-3db6-4fe6-bfb5-7cb4e34232a5}, !- Space Name
  Outdoors,                               !- Outside Boundary Condition
  ,                                       !- Outside Boundary Condition Object
  SunExposed,                             !- Sun Exposure
  WindExposed,                            !- Wind Exposure
  ,                                       !- View Factor to Ground
  ,                                       !- Number of Vertices
  4.572, 0, 6.096,                        !- X,Y,Z Vertex 1 {m}
  4.572, 4.572, 6.096,                    !- X,Y,Z Vertex 2 {m}
  0, 4.572, 6.096,                        !- X,Y,Z Vertex 3 {m}
  0, 0, 6.096;                            !- X,Y,Z Vertex 4 {m}

OS:ThermalZone,
  {08b3c055-bff8-45b1-9fc1-e0581d7179d4}, !- Handle
  Zone Retail Retail A end_a - Story Ground, !- Name
  1,                                      !- Multiplier
  ,                                       !- Ceiling Height {m}
  ,                                       !- Volume {m3}
  ,                                       !- Floor Area {m2}
  ,                                       !- Zone Inside Convection Algorithm
  ,                                       !- Zone Outside Convection Algorithm
  ,                                       !- Zone Conditioning Equipment List Name
  {3afb396c-4b02-43f3-999d-b30f646b729e}, !- Zone Air Inlet Port List
  {255581cf-bbfa-47cf-bd45-53447676287c}, !- Zone Air Exhaust Port List
  {35aec4fc-51da-49bd-91c8-c2f228d83d8a}, !- Zone Air Node Name
  {5170e1ef-40e0-4e3a-a08d-404b6dc3f926}, !- Zone Return Air Port List
  ,                                       !- Primary Daylighting Control Name
  ,                                       !- Fraction of Zone Controlled by Primary Daylighting Control
  ,                                       !- Secondary Daylighting Control Name
  ,                                       !- Fraction of Zone Controlled by Secondary Daylighting Control
  ,                                       !- Illuminance Map Name
  ,                                       !- Group Rendering Name
  ,                                       !- Thermostat Name
  No;                                     !- Use Ideal Air Loads

OS:Node,
  {ed8fd44c-33ac-4161-9b96-7d9748798b78}, !- Handle
  Node 1,                                 !- Name
  {35aec4fc-51da-49bd-91c8-c2f228d83d8a}, !- Inlet Port
  ;                                       !- Outlet Port

OS:Connection,
  {35aec4fc-51da-49bd-91c8-c2f228d83d8a}, !- Handle
  {d098dd7e-f0d5-447d-8b7b-5b6c4132a761}, !- Name
  {08b3c055-bff8-45b1-9fc1-e0581d7179d4}, !- Source Object
  11,                                     !- Outlet Port
  {ed8fd44c-33ac-4161-9b96-7d9748798b78}, !- Target Object
  2;                                      !- Inlet Port

OS:PortList,
  {3afb396c-4b02-43f3-999d-b30f646b729e}, !- Handle
  {bd72f596-4b34-4868-acab-2d4c4686a410}, !- Name
  {08b3c055-bff8-45b1-9fc1-e0581d7179d4}; !- HVAC Component

OS:PortList,
  {255581cf-bbfa-47cf-bd45-53447676287c}, !- Handle
  {0437bec6-8fa7-4c2d-b29a-433417c56925}, !- Name
  {08b3c055-bff8-45b1-9fc1-e0581d7179d4}; !- HVAC Component

OS:PortList,
  {5170e1ef-40e0-4e3a-a08d-404b6dc3f926}, !- Handle
  {f048b99a-4bd5-44bd-a5d9-802f7e02d88e}, !- Name
  {08b3c055-bff8-45b1-9fc1-e0581d7179d4}; !- HVAC Component

OS:Sizing:Zone,
  {b2e691e0-23df-4ba4-a8ee-d5d7ea9a0b78}, !- Handle
  {08b3c055-bff8-45b1-9fc1-e0581d7179d4}, !- Zone or ZoneList Name
  SupplyAirTemperature,                   !- Zone Cooling Design Supply Air Temperature Input Method
  14,                                     !- Zone Cooling Design Supply Air Temperature {C}
  11.11,                                  !- Zone Cooling Design Supply Air Temperature Difference {deltaC}
  SupplyAirTemperature,                   !- Zone Heating Design Supply Air Temperature Input Method
  40,                                     !- Zone Heating Design Supply Air Temperature {C}
  11.11,                                  !- Zone Heating Design Supply Air Temperature Difference {deltaC}
  0.0085,                                 !- Zone Cooling Design Supply Air Humidity Ratio {kg-H2O/kg-air}
  0.008,                                  !- Zone Heating Design Supply Air Humidity Ratio {kg-H2O/kg-air}
  ,                                       !- Zone Heating Sizing Factor
  ,                                       !- Zone Cooling Sizing Factor
  DesignDay,                              !- Cooling Design Air Flow Method
  ,                                       !- Cooling Design Air Flow Rate {m3/s}
  ,                                       !- Cooling Minimum Air Flow per Zone Floor Area {m3/s-m2}
  ,                                       !- Cooling Minimum Air Flow {m3/s}
  ,                                       !- Cooling Minimum Air Flow Fraction
  DesignDay,                              !- Heating Design Air Flow Method
  ,                                       !- Heating Design Air Flow Rate {m3/s}
  ,                                       !- Heating Maximum Air Flow per Zone Floor Area {m3/s-m2}
  ,                                       !- Heating Maximum Air Flow {m3/s}
  ,                                       !- Heating Maximum Air Flow Fraction
  ,                                       !- Design Zone Air Distribution Effectiveness in Cooling Mode
  ,                                       !- Design Zone Air Distribution Effectiveness in Heating Mode
  No,                                     !- Account for Dedicated Outdoor Air System
  NeutralSupplyAir,                       !- Dedicated Outdoor Air System Control Strategy
  autosize,                               !- Dedicated Outdoor Air Low Setpoint Temperature for Design {C}
  autosize;                               !- Dedicated Outdoor Air High Setpoint Temperature for Design {C}

OS:ZoneHVAC:EquipmentList,
  {14a83f70-8acb-4944-a685-6807dfefa435}, !- Handle
  Zone HVAC Equipment List 1,             !- Name
  {08b3c055-bff8-45b1-9fc1-e0581d7179d4}; !- Thermal Zone

OS:Space,
  {b7a783c1-dc34-4933-a7df-588ad85c90b3}, !- Handle
  Retail Retail B end_a - Story Ground,   !- Name
  {3eb09827-7560-48d1-9f99-b338818dcb35}, !- Space Type Name
  ,                                       !- Default Construction Set Name
  ,                                       !- Default Schedule Set Name
  -0,                                     !- Direction of Relative North {deg}
  -24.384,                                !- X Origin {m}
  -14.478,                                !- Y Origin {m}
  0,                                      !- Z Origin {m}
  {bed75b7f-543f-4736-a8b1-d9a43b0eea13}, !- Building Story Name
  {41fb6ded-855d-4169-87cf-6a7c165ae53a}; !- Thermal Zone Name

OS:Surface,
  {bbbce476-0745-42d8-bd2c-766708bd2ab2}, !- Handle
  Surface 7,                              !- Name
  Floor,                                  !- Surface Type
  ,                                       !- Construction Name
  {b7a783c1-dc34-4933-a7df-588ad85c90b3}, !- Space Name
  Ground,                                 !- Outside Boundary Condition
  ,                                       !- Outside Boundary Condition Object
  NoSun,                                  !- Sun Exposure
  NoWind,                                 !- Wind Exposure
  ,                                       !- View Factor to Ground
  ,                                       !- Number of Vertices
  0, 1.77635683940025e-015, 0,            !- X,Y,Z Vertex 1 {m}
  0, 28.956, 0,                           !- X,Y,Z Vertex 2 {m}
  4.572, 28.956, 0,                       !- X,Y,Z Vertex 3 {m}
  4.572, 1.77635683940025e-015, 0;        !- X,Y,Z Vertex 4 {m}

OS:Surface,
  {915d2ef2-e360-45bb-ba22-afbfaf1e4bb8}, !- Handle
  Surface 8,                              !- Name
  Wall,                                   !- Surface Type
  ,                                       !- Construction Name
  {b7a783c1-dc34-4933-a7df-588ad85c90b3}, !- Space Name
  Outdoors,                               !- Outside Boundary Condition
  ,                                       !- Outside Boundary Condition Object
  SunExposed,                             !- Sun Exposure
  WindExposed,                            !- Wind Exposure
  ,                                       !- View Factor to Ground
  ,                                       !- Number of Vertices
  0, 28.956, 6.096,                       !- X,Y,Z Vertex 1 {m}
  0, 28.956, 0,                           !- X,Y,Z Vertex 2 {m}
  0, 1.77635683940025e-015, 0,            !- X,Y,Z Vertex 3 {m}
  0, 1.77635683940025e-015, 6.096;        !- X,Y,Z Vertex 4 {m}

OS:Surface,
  {c0aed204-a39a-45d5-bb74-0f5371f46056}, !- Handle
  Surface 9,                              !- Name
  Wall,                                   !- Surface Type
  ,                                       !- Construction Name
  {b7a783c1-dc34-4933-a7df-588ad85c90b3}, !- Space Name
  Surface,                                !- Outside Boundary Condition
  {eb29ccbd-9b5e-4cfa-bf2a-d2c346df02af}, !- Outside Boundary Condition Object
  NoSun,                                  !- Sun Exposure
  NoWind,                                 !- Wind Exposure
  ,                                       !- View Factor to Ground
  ,                                       !- Number of Vertices
  4.572, 28.956, 6.096,                   !- X,Y,Z Vertex 1 {m}
  4.572, 28.956, 0,                       !- X,Y,Z Vertex 2 {m}
  0, 28.956, 0,                           !- X,Y,Z Vertex 3 {m}
  0, 28.956, 6.096;                       !- X,Y,Z Vertex 4 {m}

OS:Surface,
  {02d4d497-a7fa-4b46-a6b9-59955c57b87b}, !- Handle
  Surface 10,                             !- Name
  Wall,                                   !- Surface Type
  ,                                       !- Construction Name
  {b7a783c1-dc34-4933-a7df-588ad85c90b3}, !- Space Name
  Surface,                                !- Outside Boundary Condition
  {b10b5fec-4230-4620-8636-843c2f5162dd}, !- Outside Boundary Condition Object
  NoSun,                                  !- Sun Exposure
  NoWind,                                 !- Wind Exposure
  ,                                       !- View Factor to Ground
  ,                                       !- Number of Vertices
  4.572, 1.77635683940025e-015, 6.096,    !- X,Y,Z Vertex 1 {m}
  4.572, 1.77635683940025e-015, 0,        !- X,Y,Z Vertex 2 {m}
  4.572, 28.956, 0,                       !- X,Y,Z Vertex 3 {m}
  4.572, 28.956, 6.096;                   !- X,Y,Z Vertex 4 {m}

OS:Surface,
  {6e8015dc-b684-461d-8782-9d602a4a667a}, !- Handle
  Surface 11,                             !- Name
  Wall,                                   !- Surface Type
  ,                                       !- Construction Name
  {b7a783c1-dc34-4933-a7df-588ad85c90b3}, !- Space Name
  Surface,                                !- Outside Boundary Condition
  {e690f076-6989-4561-b722-135ca31be310}, !- Outside Boundary Condition Object
  NoSun,                                  !- Sun Exposure
  NoWind,                                 !- Wind Exposure
  ,                                       !- View Factor to Ground
  ,                                       !- Number of Vertices
  0, 1.77635683940025e-015, 6.096,        !- X,Y,Z Vertex 1 {m}
  0, 1.77635683940025e-015, 0,            !- X,Y,Z Vertex 2 {m}
  4.572, 1.77635683940025e-015, 0,        !- X,Y,Z Vertex 3 {m}
  4.572, 1.77635683940025e-015, 6.096;    !- X,Y,Z Vertex 4 {m}

OS:Surface,
  {ef3650cd-f279-4d39-a533-7df652a62926}, !- Handle
  Surface 12,                             !- Name
  RoofCeiling,                            !- Surface Type
  ,                                       !- Construction Name
  {b7a783c1-dc34-4933-a7df-588ad85c90b3}, !- Space Name
  Outdoors,                               !- Outside Boundary Condition
  ,                                       !- Outside Boundary Condition Object
  SunExposed,                             !- Sun Exposure
  WindExposed,                            !- Wind Exposure
  ,                                       !- View Factor to Ground
  ,                                       !- Number of Vertices
  4.572, 1.77635683940025e-015, 6.096,    !- X,Y,Z Vertex 1 {m}
  4.572, 28.956, 6.096,                   !- X,Y,Z Vertex 2 {m}