
OS:Version,
  {caace876-b531-4895-bd13-0b966f090c24}, !- Handle
  3.0.1;                                  !- Version Identifier

OS:WeatherFile,
  {10db5f6b-386b-4d1c-9a0d-49778be35599}, !- Handle
  Climate Zone 1,                         !- City
  CA,                                     !- State Province Region
  USA,                                    !- Country
  CTZRV2,                                 !- Data Source
  725945,                                 !- WMO Number
  40.8,                                   !- Latitude {deg}
  -124.2,                                 !- Longitude {deg}
  -8,                                     !- Time Zone {hr}
  13,                                     !- Elevation {m}
  file:///R:/NREL/BuildingSync-gem/spec/weather/CZ01RV2.epw, !- Url
  ;                                       !- Checksum

OS:Site,
  {966a218b-7dec-4369-af02-9ac5602ad59b}, !- Handle
  Climate Zone 1_CA_USA,                  !- Name
  40.8,                                   !- Latitude {deg}
  -124.2,                                 !- Longitude {deg}
  -8,                                     !- Time Zone {hr}
  13,                                     !- Elevation {m}
  ;                                       !- Terrain

OS:Site:WaterMainsTemperature,
  {f700a36a-df98-49c8-bec7-bc41f40b0332}, !- Handle
  Correlation,                            !- Calculation Method
  ,                                       !- Temperature Schedule Name
  11.9916666666667,                       !- Annual Average Outdoor Air Temperature {C}
  5.2;                                    !- Maximum Difference In Monthly Average Outdoor Air Temperatures {deltaC}

OS:ClimateZones,
  {a8d4ee58-1d93-4a23-93d5-6d06bc9eeb02}, !- Handle
  ASHRAE,                                 !- Climate Zone Institution Name 1
  ANSI/ASHRAE Standard 169,               !- Climate Zone Document Name 1
  2006,                                   !- Climate Zone Document Year 1
  4A;                                     !- Climate Zone Value 1

OS:SizingPeriod:DesignDay,
  {15da572c-e24b-4db3-b779-0b112c1a6dcd}, !- Handle
  Climate Zone 1 Ann Clg .4% Condns DB=>MWB, !- Name
  21.6,                                   !- Maximum Dry-Bulb Temperature {C}
  6.5,                                    !- Daily Dry-Bulb Temperature Range {deltaC}
  15.2,                                   !- Humidity Indicating Conditions at Maximum Dry-Bulb
  101169,                                 !- Barometric Pressure {Pa}
  4.3,                                    !- Wind Speed {m/s}
  320,                                    !- Wind Direction {deg}
  0,                                      !- Sky Clearness
  0,                                      !- Rain Indicator
  0,                                      !- Snow Indicator
  21,                                     !- Day of Month
  8,                                      !- Month
  SummerDesignDay,                        !- Day Type
  0,                                      !- Daylight Saving Time Indicator
  Wetbulb,                                !- Humidity Indicating Type
  ,                                       !- Humidity Indicating Day Schedule Name
  DefaultMultipliers,                     !- Dry-Bulb Temperature Range Modifier Type
  ,                                       !- Dry-Bulb Temperature Range Modifier Schedule Name
  ASHRAETau,                              !- Solar Model Indicator
  ,                                       !- Beam Solar Day Schedule Name
  ,                                       !- Diffuse Solar Day Schedule Name
  0.365,                                  !- ASHRAE Taub {dimensionless}
  2.513;                                  !- ASHRAE Taud {dimensionless}

OS:SizingPeriod:DesignDay,
  {14a4e3d4-b44f-47ad-b229-698996ea19ea}, !- Handle
  Climate Zone 1 Ann Htg 99.6% Condns DB, !- Name
  -0.6,                                   !- Maximum Dry-Bulb Temperature {C}
  0,                                      !- Daily Dry-Bulb Temperature Range {deltaC}
  -0.6,                                   !- Humidity Indicating Conditions at Maximum Dry-Bulb
  101169,                                 !- Barometric Pressure {Pa}
  2,                                      !- Wind Speed {m/s}
  90,                                     !- Wind Direction {deg}
  0,                                      !- Sky Clearness
  0,                                      !- Rain Indicator
  0,                                      !- Snow Indicator
  21,                                     !- Day of Month
  12,                                     !- Month
  WinterDesignDay,                        !- Day Type
  0,                                      !- Daylight Saving Time Indicator
  Wetbulb,                                !- Humidity Indicating Type
  ,                                       !- Humidity Indicating Day Schedule Name
  DefaultMultipliers,                     !- Dry-Bulb Temperature Range Modifier Type
  ,                                       !- Dry-Bulb Temperature Range Modifier Schedule Name
  ASHRAEClearSky;                         !- Solar Model Indicator

OS:SizingPeriod:DesignDay,
  {70d1b88c-c0eb-4a5e-9413-d91541c3be99}, !- Handle
  Climate Zone 1 Ann Clg .4% Condns WB=>MDB, !- Name
  19.5,                                   !- Maximum Dry-Bulb Temperature {C}
  6.5,                                    !- Daily Dry-Bulb Temperature Range {deltaC}
  16.8,                                   !- Humidity Indicating Conditions at Maximum Dry-Bulb
  101169,                                 !- Barometric Pressure {Pa}
  4.3,                                    !- Wind Speed {m/s}
  320,                                    !- Wind Direction {deg}
  0,                                      !- Sky Clearness
  0,                                      !- Rain Indicator
  0,                                      !- Snow Indicator
  21,                                     !- Day of Month
  8,                                      !- Month
  SummerDesignDay,                        !- Day Type
  0,                                      !- Daylight Saving Time Indicator
  Wetbulb,                                !- Humidity Indicating Type
  ,                                       !- Humidity Indicating Day Schedule Name
  DefaultMultipliers,                     !- Dry-Bulb Temperature Range Modifier Type
  ,                                       !- Dry-Bulb Temperature Range Modifier Schedule Name
  ASHRAETau,                              !- Solar Model Indicator
  ,                                       !- Beam Solar Day Schedule Name
  ,                                       !- Diffuse Solar Day Schedule Name
  0.365,                                  !- ASHRAE Taub {dimensionless}
  2.513;                                  !- ASHRAE Taud {dimensionless}

OS:YearDescription,
  {4f00dd45-5d2a-4938-a51f-0c022d4e0244}, !- Handle
  2020,                                   !- Calendar Year
  ,                                       !- Day of Week for Start Day
  ;                                       !- Is Leap Year

OS:SpaceType,
  {d876bff7-5719-4e30-b39f-7f072b485e13}, !- Handle
  Retail Back_Space,                      !- Name
  ,                                       !- Default Construction Set Name
  ,                                       !- Default Schedule Set Name
  {38c45086-9615-4a5e-b55b-e37fb8cba53d}, !- Group Rendering Name
  ,                                       !- Design Specification Outdoor Air Object Name
  ,                                       !- Standards Template
  Retail,                                 !- Standards Building Type
  Back_Space;                             !- Standards Space Type

OS:Rendering:Color,
  {38c45086-9615-4a5e-b55b-e37fb8cba53d}, !- Handle
  Retail Back_Space,                      !- Name
  120,                                    !- Rendering Red Value
  149,                                    !- Rendering Green Value
  230;                                    !- Rendering Blue Value

OS:SpaceType,
  {e5da32dc-147e-4fbb-9a4b-e301429afb19}, !- Handle
  Retail Entry,                           !- Name
  ,                                       !- Default Construction Set Name
  ,                                       !- Default Schedule Set Name
  {5c370133-6e10-4212-98c6-92e4fc8a5a95}, !- Group Rendering Name
  ,                                       !- Design Specification Outdoor Air Object Name
  ,                                       !- Standards Template
  Retail,                                 !- Standards Building Type
  Entry;                                  !- Standards Space Type

OS:Rendering:Color,
  {5c370133-6e10-4212-98c6-92e4fc8a5a95}, !- Handle
  Retail Entry,                           !- Name
  169,                                    !- Rendering Red Value
  31,                                     !- Rendering Green Value
  31;                                     !- Rendering Blue Value

OS:SpaceType,
  {e6f927a8-5ee9-4299-a05f-a04c30fa3991}, !- Handle
  Retail Point_of_Sale,                   !- Name
  ,                                       !- Default Construction Set Name
  ,                                       !- Default Schedule Set Name
  {b74930d3-c130-4000-9a2e-c3c8671e73bb}, !- Group Rendering Name
  ,                                       !- Design Specification Outdoor Air Object Name
  ,                                       !- Standards Template
  Retail,                                 !- Standards Building Type
  Point_of_Sale;                          !- Standards Space Type

OS:Rendering:Color,
  {b74930d3-c130-4000-9a2e-c3c8671e73bb}, !- Handle
  Retail Point_of_Sale,                   !- Name
  171,                                    !- Rendering Red Value
  222,                                    !- Rendering Green Value
  78;                                     !- Rendering Blue Value

OS:SpaceType,
  {645cd294-ca80-4b3c-85eb-cd1e069b2644}, !- Handle
  Retail Retail,                          !- Name
  ,                                       !- Default Construction Set Name
  ,                                       !- Default Schedule Set Name
  {ccf80321-5b51-4913-8ab3-9256611306d7}, !- Group Rendering Name
  ,                                       !- Design Specification Outdoor Air Object Name
  ,                                       !- Standards Template
  Retail,                                 !- Standards Building Type
  Retail;                                 !- Standards Space Type

OS:Rendering:Color,
  {ccf80321-5b51-4913-8ab3-9256611306d7}, !- Handle
  Retail Retail,                          !- Name
  171,                                    !- Rendering Red Value
  222,                                    !- Rendering Green Value
  78;                                     !- Rendering Blue Value

OS:Building,
  {6f21f585-8ef1-4acd-a465-2faac787973d}, !- Handle
  DOE Ref 1980-2004|RetailStandalone,     !- Name
  ,                                       !- Building Sector Type
  ,                                       !- North Axis {deg}
  ,                                       !- Nominal Floor to Floor Height {m}
  ,                                       !- Space Type Name
  ,                                       !- Default Construction Set Name
  ;                                       !- Default Schedule Set Name

OS:BuildingStory,
  {edff5200-4694-4f3a-b1d7-25ffc1426377}, !- Handle
  Story Ground,                           !- Name
  0,                                      !- Nominal Z Coordinate {m}
  6.096,                                  !- Nominal Floor to Floor Height {m}
  ,                                       !- Default Construction Set Name
  ,                                       !- Default Schedule Set Name
  ;                                       !- Group Rendering Name

OS:Space,
  {e7faa5af-425e-4197-ada2-38aabc8e5e80}, !- Handle
  Retail Retail A end_a - Story Ground,   !- Name
  {645cd294-ca80-4b3c-85eb-cd1e069b2644}, !- Space Type Name
  ,                                       !- Default Construction Set Name
  ,                                       !- Default Schedule Set Name
  -0,                                     !- Direction of Relative North {deg}
  -24.384,                                !- X Origin {m}
  -19.05,                                 !- Y Origin {m}
  0,                                      !- Z Origin {m}
  {edff5200-4694-4f3a-b1d7-25ffc1426377}, !- Building Story Name
  {a428a3f9-1aa4-4163-9058-650a25d45d6d}; !- Thermal Zone Name

OS:Surface,
  {5a0f6a7e-53ac-4557-9a7c-57e74c9ba8b6}, !- Handle
  Surface 1,                              !- Name
  Floor,                                  !- Surface Type
  ,                                       !- Construction Name
  {e7faa5af-425e-4197-ada2-38aabc8e5e80}, !- Space Name
  Ground,                                 !- Outside Boundary Condition
  ,                                       !- Outside Boundary Condition Object
  NoSun,                                  !- Sun Exposure
  NoWind,                                 !- Wind Exposure
  ,                                       !- View Factor to Ground
  ,                                       !- Number of Vertices
  0, 0, 0,                                !- X,Y,Z Vertex 1 {m}
  0, 4.572, 0,                            !- X,Y,Z Vertex 2 {m}
  4.572, 4.572, 0,                        !- X,Y,Z Vertex 3 {m}
  4.572, 0, 0;                            !- X,Y,Z Vertex 4 {m}

OS:Surface,
  {fbaaef6f-a678-4222-a327-3f8ed36d0d78}, !- Handle
  Surface 2,                              !- Name
  Wall,                                   !- Surface Type
  ,                                       !- Construction Name
  {e7faa5af-425e-4197-ada2-38aabc8e5e80}, !- Space Name
  Outdoors,                               !- Outside Boundary Condition
  ,                                       !- Outside Boundary Condition Object
  SunExposed,                             !- Sun Exposure
  WindExposed,                            !- Wind Exposure
  ,                                       !- View Factor to Ground
  ,                                       !- Number of Vertices
  0, 4.572, 6.096,                        !- X,Y,Z Vertex 1 {m}
  0, 4.572, 0,                            !- X,Y,Z Vertex 2 {m}
  0, 0, 0,                                !- X,Y,Z Vertex 3 {m}
  0, 0, 6.096;                            !- X,Y,Z Vertex 4 {m}

OS:Surface,
  {1296dd93-c9ac-43c9-a9f9-ee75568f2ab7}, !- Handle
  Surface 3,                              !- Name
  Wall,                                   !- Surface Type
  ,                                       !- Construction Name
  {e7faa5af-425e-4197-ada2-38aabc8e5e80}, !- Space Name
  Surface,                                !- Outside Boundary Condition
  {2f8fe4b4-016b-4fc0-ad9c-d10392a7c9f4}, !- Outside Boundary Condition Object
  NoSun,                                  !- Sun Exposure
  NoWind,                                 !- Wind Exposure
  ,                                       !- View Factor to Ground
  ,                                       !- Number of Vertices
  4.572, 4.572, 6.096,                    !- X,Y,Z Vertex 1 {m}
  4.572, 4.572, 0,                        !- X,Y,Z Vertex 2 {m}
  0, 4.572, 0,                            !- X,Y,Z Vertex 3 {m}
  0, 4.572, 6.096;                        !- X,Y,Z Vertex 4 {m}

OS:Surface,
  {012d4f11-a0cf-4b39-974b-38493ed71925}, !- Handle
  Surface 4,                              !- Name
  Wall,                                   !- Surface Type
  ,                                       !- Construction Name
  {e7faa5af-425e-4197-ada2-38aabc8e5e80}, !- Space Name
  Surface,                                !- Outside Boundary Condition
  {798566f4-21a4-458e-98cd-b0027efe70b3}, !- Outside Boundary Condition Object
  NoSun,                                  !- Sun Exposure
  NoWind,                                 !- Wind Exposure
  ,                                       !- View Factor to Ground
  ,                                       !- Number of Vertices
  4.572, 0, 6.096,                        !- X,Y,Z Vertex 1 {m}
  4.572, 0, 0,                            !- X,Y,Z Vertex 2 {m}
  4.572, 4.572, 0,                        !- X,Y,Z Vertex 3 {m}
  4.572, 4.572, 6.096;                    !- X,Y,Z Vertex 4 {m}

OS:Surface,
  {f892296d-97f5-4145-8e48-02213ee3ce6d}, !- Handle
  Surface 5,                              !- Name
  Wall,                                   !- Surface Type
  ,                                       !- Construction Name
  {e7faa5af-425e-4197-ada2-38aabc8e5e80}, !- Space Name
  Outdoors,                               !- Outside Boundary Condition
  ,                                       !- Outside Boundary Condition Object
  SunExposed,                             !- Sun Exposure
  WindExposed,                            !- Wind Exposure
  ,                                       !- View Factor to Ground
  ,                                       !- Number of Vertices
  0, 0, 6.096,                            !- X,Y,Z Vertex 1 {m}
  0, 0, 0,                                !- X,Y,Z Vertex 2 {m}
  4.572, 0, 0,                            !- X,Y,Z Vertex 3 {m}
  4.572, 0, 6.096;                        !- X,Y,Z Vertex 4 {m}

OS:Surface,
  {4e9337fc-0418-44c0-910a-9342226ef3d5}, !- Handle
  Surface 6,                              !- Name
  RoofCeiling,                            !- Surface Type
  ,                                       !- Construction Name
  {e7faa5af-425e-4197-ada2-38aabc8e5e80}, !- Space Name
  Outdoors,                               !- Outside Boundary Condition
  ,                                       !- Outside Boundary Condition Object
  SunExposed,                             !- Sun Exposure
  WindExposed,                            !- Wind Exposure
  ,                                       !- View Factor to Ground
  ,                                       !- Number of Vertices
  4.572, 0, 6.096,                        !- X,Y,Z Vertex 1 {m}
  4.572, 4.572, 6.096,                    !- X,Y,Z Vertex 2 {m}
  0, 4.572, 6.096,                        !- X,Y,Z Vertex 3 {m}
  0, 0, 6.096;                            !- X,Y,Z Vertex 4 {m}

OS:ThermalZone,
  {a428a3f9-1aa4-4163-9058-650a25d45d6d}, !- Handle
  Zone Retail Retail A end_a - Story Ground, !- Name
  1,                                      !- Multiplier
  ,                                       !- Ceiling Height {m}
  ,                                       !- Volume {m3}
  ,                                       !- Floor Area {m2}
  ,                                       !- Zone Inside Convection Algorithm
  ,                                       !- Zone Outside Convection Algorithm
  ,                                       !- Zone Conditioning Equipment List Name
  {a1ebc5f3-f96a-4f9f-a188-fb3f71e51e99}, !- Zone Air Inlet Port List
  {5212c1c0-46ec-46fd-9786-a34544f7bf5a}, !- Zone Air Exhaust Port List
  {03cfd9e5-41f8-4d2a-a02b-24c5e0e94b02}, !- Zone Air Node Name
  {18a2b517-9a30-4260-9e64-6cc96faab68c}, !- Zone Return Air Port List
  ,                                       !- Primary Daylighting Control Name
  ,                                       !- Fraction of Zone Controlled by Primary Daylighting Control
  ,                                       !- Secondary Daylighting Control Name
  ,                                       !- Fraction of Zone Controlled by Secondary Daylighting Control
  ,                                       !- Illuminance Map Name
  ,                                       !- Group Rendering Name
  ,                                       !- Thermostat Name
  No;                                     !- Use Ideal Air Loads

OS:Node,
  {e507a574-ec36-450b-9863-65641b5ac15c}, !- Handle
  Node 1,                                 !- Name
  {03cfd9e5-41f8-4d2a-a02b-24c5e0e94b02}, !- Inlet Port
  ;                                       !- Outlet Port

OS:Connection,
  {03cfd9e5-41f8-4d2a-a02b-24c5e0e94b02}, !- Handle
  {9706b817-2bbe-4567-af5f-039fa65c46b2}, !- Name
  {a428a3f9-1aa4-4163-9058-650a25d45d6d}, !- Source Object
  11,                                     !- Outlet Port
  {e507a574-ec36-450b-9863-65641b5ac15c}, !- Target Object
  2;                                      !- Inlet Port

OS:PortList,
  {a1ebc5f3-f96a-4f9f-a188-fb3f71e51e99}, !- Handle
  {b1026d0b-7ec3-4aa8-9ff8-2c84690835cd}, !- Name
  {a428a3f9-1aa4-4163-9058-650a25d45d6d}; !- HVAC Component

OS:PortList,
  {5212c1c0-46ec-46fd-9786-a34544f7bf5a}, !- Handle
  {74c70ead-0866-4f6e-9675-e59b40e0f435}, !- Name
  {a428a3f9-1aa4-4163-9058-650a25d45d6d}; !- HVAC Component

OS:PortList,
  {18a2b517-9a30-4260-9e64-6cc96faab68c}, !- Handle
  {918cbc9f-7678-47f9-979c-4707c47eff65}, !- Name
  {a428a3f9-1aa4-4163-9058-650a25d45d6d}; !- HVAC Component

OS:Sizing:Zone,
  {810bfbb3-eb47-416c-a946-a28a09de5589}, !- Handle
  {a428a3f9-1aa4-4163-9058-650a25d45d6d}, !- Zone or ZoneList Name
  SupplyAirTemperature,                   !- Zone Cooling Design Supply Air Temperature Input Method
  14,                                     !- Zone Cooling Design Supply Air Temperature {C}
  11.11,                                  !- Zone Cooling Design Supply Air Temperature Difference {deltaC}
  SupplyAirTemperature,                   !- Zone Heating Design Supply Air Temperature Input Method
  40,                                     !- Zone Heating Design Supply Air Temperature {C}
  11.11,                                  !- Zone Heating Design Supply Air Temperature Difference {deltaC}
  0.0085,                                 !- Zone Cooling Design Supply Air Humidity Ratio {kg-H2O/kg-air}
  0.008,                                  !- Zone Heating Design Supply Air Humidity Ratio {kg-H2O/kg-air}
  ,                                       !- Zone Heating Sizing Factor
  ,                                       !- Zone Cooling Sizing Factor
  DesignDay,                              !- Cooling Design Air Flow Method
  ,                                       !- Cooling Design Air Flow Rate {m3/s}
  ,                                       !- Cooling Minimum Air Flow per Zone Floor Area {m3/s-m2}
  ,                                       !- Cooling Minimum Air Flow {m3/s}
  ,                                       !- Cooling Minimum Air Flow Fraction
  DesignDay,                              !- Heating Design Air Flow Method
  ,                                       !- Heating Design Air Flow Rate {m3/s}
  ,                                       !- Heating Maximum Air Flow per Zone Floor Area {m3/s-m2}
  ,                                       !- Heating Maximum Air Flow {m3/s}
  ,                                       !- Heating Maximum Air Flow Fraction
  No,                                     !- Account for Dedicated Outdoor Air System
  NeutralSupplyAir,                       !- Dedicated Outdoor Air System Control Strategy
  autosize,                               !- Dedicated Outdoor Air Low Setpoint Temperature for Design {C}
  autosize;                               !- Dedicated Outdoor Air High Setpoint Temperature for Design {C}

OS:ZoneHVAC:EquipmentList,
  {77dfec94-9d9c-4c55-9326-5e52f5841bc9}, !- Handle
  Zone HVAC Equipment List 1,             !- Name
  {a428a3f9-1aa4-4163-9058-650a25d45d6d}; !- Thermal Zone

OS:Space,
  {ded0759f-53fe-42e2-aa82-b871d9f7d57f}, !- Handle
  Retail Retail B end_a - Story Ground,   !- Name
  {645cd294-ca80-4b3c-85eb-cd1e069b2644}, !- Space Type Name
  ,                                       !- Default Construction Set Name
  ,                                       !- Default Schedule Set Name
  -0,                                     !- Direction of Relative North {deg}
  -24.384,                                !- X Origin {m}
  -14.478,                                !- Y Origin {m}
  0,                                      !- Z Origin {m}
  {edff5200-4694-4f3a-b1d7-25ffc1426377}, !- Building Story Name
  {663b4c04-0c0d-4eec-b3a6-4b06ce555153}; !- Thermal Zone Name

OS:Surface,
  {513c82d1-d9fc-4046-999e-9d236e618d66}, !- Handle
  Surface 7,                              !- Name
  Floor,                                  !- Surface Type
  ,                                       !- Construction Name
  {ded0759f-53fe-42e2-aa82-b871d9f7d57f}, !- Space Name
  Ground,                                 !- Outside Boundary Condition
  ,                                       !- Outside Boundary Condition Object
  NoSun,                                  !- Sun Exposure
  NoWind,                                 !- Wind Exposure
  ,                                       !- View Factor to Ground
  ,                                       !- Number of Vertices
  0, 1.77635683940025e-15, 0,             !- X,Y,Z Vertex 1 {m}
  0, 28.956, 0,                           !- X,Y,Z Vertex 2 {m}
  4.572, 28.956, 0,                       !- X,Y,Z Vertex 3 {m}
  4.572, 1.77635683940025e-15, 0;         !- X,Y,Z Vertex 4 {m}

OS:Surface,
  {701167ae-1472-4123-9e07-27c44d61d77e}, !- Handle
  Surface 8,                              !- Name
  Wall,                                   !- Surface Type
  ,                                       !- Construction Name
  {ded0759f-53fe-42e2-aa82-b871d9f7d57f}, !- Space Name
  Outdoors,                               !- Outside Boundary Condition
  ,                                       !- Outside Boundary Condition Object
  SunExposed,                             !- Sun Exposure
  WindExposed,                            !- Wind Exposure
  ,                                       !- View Factor to Ground
  ,                                       !- Number of Vertices
  0, 28.956, 6.096,                       !- X,Y,Z Vertex 1 {m}
  0, 28.956, 0,                           !- X,Y,Z Vertex 2 {m}
  0, 1.77635683940025e-15, 0,             !- X,Y,Z Vertex 3 {m}
  0, 1.77635683940025e-15, 6.096;         !- X,Y,Z Vertex 4 {m}

OS:Surface,
  {eb165f2b-3aca-4308-8460-15a0e0262833}, !- Handle
  Surface 9,                              !- Name
  Wall,                                   !- Surface Type
  ,                                       !- Construction Name
  {ded0759f-53fe-42e2-aa82-b871d9f7d57f}, !- Space Name
  Surface,                                !- Outside Boundary Condition
  {92a3c498-94b4-4edb-9e52-c871255de2b3}, !- Outside Boundary Condition Object
  NoSun,                                  !- Sun Exposure
  NoWind,                                 !- Wind Exposure
  ,                                       !- View Factor to Ground
  ,                                       !- Number of Vertices
  4.572, 28.956, 6.096,                   !- X,Y,Z Vertex 1 {m}
  4.572, 28.956, 0,                       !- X,Y,Z Vertex 2 {m}
  0, 28.956, 0,                           !- X,Y,Z Vertex 3 {m}
  0, 28.956, 6.096;                       !- X,Y,Z Vertex 4 {m}

OS:Surface,
  {93ec8d68-1645-49cc-b5ea-d4d07c13c643}, !- Handle
  Surface 10,                             !- Name
  Wall,                                   !- Surface Type
  ,                                       !- Construction Name
  {ded0759f-53fe-42e2-aa82-b871d9f7d57f}, !- Space Name
  Surface,                                !- Outside Boundary Condition
  {7b8fae17-2b16-460b-b67a-529bb0265a57}, !- Outside Boundary Condition Object
  NoSun,                                  !- Sun Exposure
  NoWind,                                 !- Wind Exposure
  ,                                       !- View Factor to Ground
  ,                                       !- Number of Vertices
  4.572, 1.77635683940025e-15, 6.096,     !- X,Y,Z Vertex 1 {m}
  4.572, 1.77635683940025e-15, 0,         !- X,Y,Z Vertex 2 {m}
  4.572, 28.956, 0,                       !- X,Y,Z Vertex 3 {m}
  4.572, 28.956, 6.096;                   !- X,Y,Z Vertex 4 {m}

OS:Surface,
  {2f8fe4b4-016b-4fc0-ad9c-d10392a7c9f4}, !- Handle
  Surface 11,                             !- Name
  Wall,                                   !- Surface Type
  ,                                       !- Construction Name
  {ded0759f-53fe-42e2-aa82-b871d9f7d57f}, !- Space Name
  Surface,                                !- Outside Boundary Condition
  {1296dd93-c9ac-43c9-a9f9-ee75568f2ab7}, !- Outside Boundary Condition Object
  NoSun,                                  !- Sun Exposure
  NoWind,                                 !- Wind Exposure
  ,                                       !- View Factor to Ground
  ,                                       !- Number of Vertices
  0, 1.77635683940025e-15, 6.096,         !- X,Y,Z Vertex 1 {m}
  0, 1.77635683940025e-15, 0,             !- X,Y,Z Vertex 2 {m}
  4.572, 1.77635683940025e-15, 0,         !- X,Y,Z Vertex 3 {m}
  4.572, 1.77635683940025e-15, 6.096;     !- X,Y,Z Vertex 4 {m}

OS:Surface,
  {9bd871c6-28ff-4d68-a3f7-cfa084c8a8e7}, !- Handle
  Surface 12,                             !- Name
  RoofCeiling,                            !- Surface Type
  ,                                       !- Construction Name
  {ded0759f-53fe-42e2-aa82-b871d9f7d57f}, !- Space Name
  Outdoors,                               !- Outside Boundary Condition
  ,                                       !- Outside Boundary Condition Object
  SunExposed,                             !- Sun Exposure
  WindExposed,                            !- Wind Exposure
  ,                                       !- View Factor to Ground
  ,                                       !- Number of Vertices
  4.572, 1.77635683940025e-15, 6.096,     !- X,Y,Z Vertex 1 {m}
  4.572, 28.956, 6.096,                   !- X,Y,Z Vertex 2 {m}
  0, 28.956, 6.096,                       !- X,Y,Z Vertex 3 {m}
  0, 1.77635683940025e-15, 6.096;         !- X,Y,Z Vertex 4 {m}

OS:ThermalZone,
  {663b4c04-0c0d-4eec-b3a6-4b06ce555153}, !- Handle
  Zone Retail Retail B end_a - Story Ground, !- Name
  1,                                      !- Multiplier