
OS:Version,
  {ae89bb93-c8a0-4f84-9bf8-429a0f5673d9}, !- Handle
  3.4.0;                                  !- Version Identifier

OS:WeatherFile,
  {8137136e-6c50-4031-bf0f-f1ce77ba10e4}, !- Handle
  Climate Zone 1,                         !- City
  CA,                                     !- State Province Region
  USA,                                    !- Country
  CTZRV2,                                 !- Data Source
  725945,                                 !- WMO Number
  40.8,                                   !- Latitude {deg}
  -124.2,                                 !- Longitude {deg}
  -8,                                     !- Time Zone {hr}
  13,                                     !- Elevation {m}
  /Users/tmarzull/Documents/BuildingSync/working/BuildingSync-gem/spec/weather/CZ01RV2.epw, !- Url
  ;                                       !- Checksum

OS:Site,
  {7d08219e-4828-4407-9521-40b68f92e096}, !- Handle
  Climate Zone 1_CA_USA,                  !- Name
  40.8,                                   !- Latitude {deg}
  -124.2,                                 !- Longitude {deg}
  -8,                                     !- Time Zone {hr}
  13,                                     !- Elevation {m}
  ;                                       !- Terrain

OS:Site:WaterMainsTemperature,
  {f691ba81-f509-4d8a-adfe-115a7bcfafd8}, !- Handle
  Correlation,                            !- Calculation Method
  ,                                       !- Temperature Schedule Name
  11.9916666666667,                       !- Annual Average Outdoor Air Temperature {C}
  5.2;                                    !- Maximum Difference In Monthly Average Outdoor Air Temperatures {deltaC}

OS:ClimateZones,
  {98315955-b158-4f5b-83ee-34ca32c3bb88}, !- Handle
  ASHRAE,                                 !- Climate Zone Institution Name 1
  ANSI/ASHRAE Standard 169,               !- Climate Zone Document Name 1
  2006,                                   !- Climate Zone Document Year 1
  4A;                                     !- Climate Zone Value 1

OS:SizingPeriod:DesignDay,
  {f9e45028-26af-4fec-a8be-1b6b6efa8a9c}, !- Handle
  Climate Zone 1 Ann Clg .4% Condns DB=>MWB, !- Name
  21.6,                                   !- Maximum Dry-Bulb Temperature {C}
  6.5,                                    !- Daily Dry-Bulb Temperature Range {deltaC}
  101169,                                 !- Barometric Pressure {Pa}
  4.3,                                    !- Wind Speed {m/s}
  320,                                    !- Wind Direction {deg}
  0,                                      !- Sky Clearness
  No,                                     !- Rain Indicator
  No,                                     !- Snow Indicator
  21,                                     !- Day of Month
  8,                                      !- Month
  SummerDesignDay,                        !- Day Type
  No,                                     !- Daylight Saving Time Indicator
  Wetbulb,                                !- Humidity Condition Type
  ,                                       !- Humidity Condition Day Schedule Name
  15.2,                                   !- Wetbulb or DewPoint at Maximum Dry-Bulb {C}
  ,                                       !- Humidity Ratio at Maximum Dry-Bulb {kgWater/kgDryAir}
  ,                                       !- Enthalpy at Maximum Dry-Bulb {J/kg}
  DefaultMultipliers,                     !- Dry-Bulb Temperature Range Modifier Type
  ,                                       !- Dry-Bulb Temperature Range Modifier Day Schedule Name
  ASHRAETau,                              !- Solar Model Indicator
  ,                                       !- Beam Solar Day Schedule Name
  ,                                       !- Diffuse Solar Day Schedule Name
  0.365,                                  !- ASHRAE Clear Sky Optical Depth for Beam Irradiance {dimensionless}
  2.513;                                  !- ASHRAE Clear Sky Optical Depth for Diffuse Irradiance {dimensionless}

OS:SizingPeriod:DesignDay,
  {80c13d6e-881d-477f-99da-9999c557ce7b}, !- Handle
  Climate Zone 1 Ann Clg .4% Condns WB=>MDB, !- Name
  19.5,                                   !- Maximum Dry-Bulb Temperature {C}
  6.5,                                    !- Daily Dry-Bulb Temperature Range {deltaC}
  101169,                                 !- Barometric Pressure {Pa}
  4.3,                                    !- Wind Speed {m/s}
  320,                                    !- Wind Direction {deg}
  0,                                      !- Sky Clearness
  No,                                     !- Rain Indicator
  No,                                     !- Snow Indicator
  21,                                     !- Day of Month
  8,                                      !- Month
  SummerDesignDay,                        !- Day Type
  No,                                     !- Daylight Saving Time Indicator
  Wetbulb,                                !- Humidity Condition Type
  ,                                       !- Humidity Condition Day Schedule Name
  16.8,                                   !- Wetbulb or DewPoint at Maximum Dry-Bulb {C}
  ,                                       !- Humidity Ratio at Maximum Dry-Bulb {kgWater/kgDryAir}
  ,                                       !- Enthalpy at Maximum Dry-Bulb {J/kg}
  DefaultMultipliers,                     !- Dry-Bulb Temperature Range Modifier Type
  ,                                       !- Dry-Bulb Temperature Range Modifier Day Schedule Name
  ASHRAETau,                              !- Solar Model Indicator
  ,                                       !- Beam Solar Day Schedule Name
  ,                                       !- Diffuse Solar Day Schedule Name
  0.365,                                  !- ASHRAE Clear Sky Optical Depth for Beam Irradiance {dimensionless}
  2.513;                                  !- ASHRAE Clear Sky Optical Depth for Diffuse Irradiance {dimensionless}

OS:SizingPeriod:DesignDay,
  {c0e9a6d6-ccb0-4128-8452-146d84957ed1}, !- Handle
  Climate Zone 1 Ann Htg 99.6% Condns DB, !- Name
  -0.6,                                   !- Maximum Dry-Bulb Temperature {C}
  0,                                      !- Daily Dry-Bulb Temperature Range {deltaC}
  101169,                                 !- Barometric Pressure {Pa}
  2,                                      !- Wind Speed {m/s}
  90,                                     !- Wind Direction {deg}
  0,                                      !- Sky Clearness
  No,                                     !- Rain Indicator
  No,                                     !- Snow Indicator
  21,                                     !- Day of Month
  12,                                     !- Month
  WinterDesignDay,                        !- Day Type
  No,                                     !- Daylight Saving Time Indicator
  Wetbulb,                                !- Humidity Condition Type
  ,                                       !- Humidity Condition Day Schedule Name
  -0.6,                                   !- Wetbulb or DewPoint at Maximum Dry-Bulb {C}
  ,                                       !- Humidity Ratio at Maximum Dry-Bulb {kgWater/kgDryAir}
  ,                                       !- Enthalpy at Maximum Dry-Bulb {J/kg}
  DefaultMultipliers,                     !- Dry-Bulb Temperature Range Modifier Type
  ,                                       !- Dry-Bulb Temperature Range Modifier Day Schedule Name
  ASHRAEClearSky;                         !- Solar Model Indicator

OS:YearDescription,
  {d0fcec5a-533c-4ae5-96ad-48cf821a3afd}, !- Handle
  2024,                                   !- Calendar Year
  ,                                       !- Day of Week for Start Day
  ;                                       !- Is Leap Year

OS:SpaceType,
  {c600d6da-bdc3-476a-8876-7fd6552b1ed6}, !- Handle
  RetailStandalone Back_Space,            !- Name
  ,                                       !- Default Construction Set Name
  ,                                       !- Default Schedule Set Name
  ,                                       !- Group Rendering Name
  ,                                       !- Design Specification Outdoor Air Object Name
  ,                                       !- Standards Template
  RetailStandalone,                       !- Standards Building Type
  Back_Space;                             !- Standards Space Type

OS:SpaceType,
  {6e1e049a-3fe6-4c13-a756-5c765a792305}, !- Handle
  RetailStandalone Entry,                 !- Name
  ,                                       !- Default Construction Set Name
  ,                                       !- Default Schedule Set Name
  ,                                       !- Group Rendering Name
  ,                                       !- Design Specification Outdoor Air Object Name
  ,                                       !- Standards Template
  RetailStandalone,                       !- Standards Building Type
  Entry;                                  !- Standards Space Type

OS:SpaceType,
  {1ac71613-a146-45db-af07-082c29c4cd86}, !- Handle
  RetailStandalone Point_of_Sale,         !- Name
  ,                                       !- Default Construction Set Name
  ,                                       !- Default Schedule Set Name
  ,                                       !- Group Rendering Name
  ,                                       !- Design Specification Outdoor Air Object Name
  ,                                       !- Standards Template
  RetailStandalone,                       !- Standards Building Type
  Point_of_Sale;                          !- Standards Space Type

OS:SpaceType,
  {2a71586b-3972-425f-bea0-5ec89b0499d1}, !- Handle
  RetailStandalone Retail,                !- Name
  ,                                       !- Default Construction Set Name
  ,                                       !- Default Schedule Set Name
  ,                                       !- Group Rendering Name
  ,                                       !- Design Specification Outdoor Air Object Name
  ,                                       !- Standards Template
  RetailStandalone,                       !- Standards Building Type
  Retail;                                 !- Standards Space Type

OS:Building,
  {af1f9b60-60f4-4ba1-bc09-cd790374c1a4}, !- Handle
  DOE Ref 1980-2004|RetailStandalone,     !- Name
  ,                                       !- Building Sector Type
  ,                                       !- North Axis {deg}
  ,                                       !- Nominal Floor to Floor Height {m}
  ,                                       !- Space Type Name
  ,                                       !- Default Construction Set Name
  ;                                       !- Default Schedule Set Name

OS:BuildingStory,
  {4009ad69-0a93-415e-9a25-ea301fc870a0}, !- Handle
  Story Ground,                           !- Name
  0,                                      !- Nominal Z Coordinate {m}
  6.096,                                  !- Nominal Floor to Floor Height {m}
  ,                                       !- Default Construction Set Name
  ,                                       !- Default Schedule Set Name
  ;                                       !- Group Rendering Name

OS:Space,
  {2b8608d1-709d-4b2a-88e2-aa8e5bd5f10d}, !- Handle
  RetailStandalone Retail A end_a - Story Ground, !- Name
  {2a71586b-3972-425f-bea0-5ec89b0499d1}, !- Space Type Name
  ,                                       !- Default Construction Set Name
  ,                                       !- Default Schedule Set Name
  -0,                                     !- Direction of Relative North {deg}
  -24.384,                                !- X Origin {m}
  -19.05,                                 !- Y Origin {m}
  0,                                      !- Z Origin {m}
  {4009ad69-0a93-415e-9a25-ea301fc870a0}, !- Building Story Name
  {02084d08-7ece-4c60-8c61-506037f30d73}; !- Thermal Zone Name

OS:Surface,
  {d6e92721-f9c0-4a26-ae96-cd8a15bf6c9b}, !- Handle
  Surface 1,                              !- Name
  Floor,                                  !- Surface Type
  ,                                       !- Construction Name
  {2b8608d1-709d-4b2a-88e2-aa8e5bd5f10d}, !- Space Name
  Ground,                                 !- Outside Boundary Condition
  ,                                       !- Outside Boundary Condition Object
  NoSun,                                  !- Sun Exposure
  NoWind,                                 !- Wind Exposure
  ,                                       !- View Factor to Ground
  ,                                       !- Number of Vertices
  0, 0, 0,                                !- X,Y,Z Vertex 1 {m}
  0, 4.572, 0,                            !- X,Y,Z Vertex 2 {m}
  4.572, 4.572, 0,                        !- X,Y,Z Vertex 3 {m}
  4.572, 0, 0;                            !- X,Y,Z Vertex 4 {m}

OS:Surface,
  {f31b12b7-25a7-4ba1-aff3-9d95fb22109d}, !- Handle
  Surface 2,                              !- Name
  Wall,                                   !- Surface Type
  ,                                       !- Construction Name
  {2b8608d1-709d-4b2a-88e2-aa8e5bd5f10d}, !- Space Name
  Outdoors,                               !- Outside Boundary Condition
  ,                                       !- Outside Boundary Condition Object
  SunExposed,                             !- Sun Exposure
  WindExposed,                            !- Wind Exposure
  ,                                       !- View Factor to Ground
  ,                                       !- Number of Vertices
  0, 4.572, 6.096,                        !- X,Y,Z Vertex 1 {m}
  0, 4.572, 0,                            !- X,Y,Z Vertex 2 {m}
  0, 0, 0,                                !- X,Y,Z Vertex 3 {m}
  0, 0, 6.096;                            !- X,Y,Z Vertex 4 {m}

OS:Surface,
  {334a73e9-13f4-42cc-96d8-e0003181848a}, !- Handle
  Surface 3,                              !- Name
  Wall,                                   !- Surface Type
  ,                                       !- Construction Name
  {2b8608d1-709d-4b2a-88e2-aa8e5bd5f10d}, !- Space Name
  Surface,                                !- Outside Boundary Condition
  {171ec4c1-def3-4eee-b667-1e2cb8a54df6}, !- Outside Boundary Condition Object
  NoSun,                                  !- Sun Exposure
  NoWind,                                 !- Wind Exposure
  ,                                       !- View Factor to Ground
  ,                                       !- Number of Vertices
  4.572, 4.572, 6.096,                    !- X,Y,Z Vertex 1 {m}
  4.572, 4.572, 0,                        !- X,Y,Z Vertex 2 {m}
  0, 4.572, 0,                            !- X,Y,Z Vertex 3 {m}
  0, 4.572, 6.096;                        !- X,Y,Z Vertex 4 {m}

OS:Surface,
  {ebc78a4c-3928-4e60-b3c9-fdc009312d58}, !- Handle
  Surface 4,                              !- Name
  Wall,                                   !- Surface Type
  ,                                       !- Construction Name
  {2b8608d1-709d-4b2a-88e2-aa8e5bd5f10d}, !- Space Name
  Surface,                                !- Outside Boundary Condition
  {817211ff-f650-43f9-9235-0364574323b3}, !- Outside Boundary Condition Object
  NoSun,                                  !- Sun Exposure
  NoWind,                                 !- Wind Exposure
  ,                                       !- View Factor to Ground
  ,                                       !- Number of Vertices
  4.572, 0, 6.096,                        !- X,Y,Z Vertex 1 {m}
  4.572, 0, 0,                            !- X,Y,Z Vertex 2 {m}
  4.572, 4.572, 0,                        !- X,Y,Z Vertex 3 {m}
  4.572, 4.572, 6.096;                    !- X,Y,Z Vertex 4 {m}

OS:Surface,
  {b85e44bd-d010-40c4-b083-129e7f40f844}, !- Handle
  Surface 5,                              !- Name
  Wall,                                   !- Surface Type
  ,                                       !- Construction Name
  {2b8608d1-709d-4b2a-88e2-aa8e5bd5f10d}, !- Space Name
  Outdoors,                               !- Outside Boundary Condition
  ,                                       !- Outside Boundary Condition Object
  SunExposed,                             !- Sun Exposure
  WindExposed,                            !- Wind Exposure
  ,                                       !- View Factor to Ground
  ,                                       !- Number of Vertices
  0, 0, 6.096,                            !- X,Y,Z Vertex 1 {m}
  0, 0, 0,                                !- X,Y,Z Vertex 2 {m}
  4.572, 0, 0,                            !- X,Y,Z Vertex 3 {m}
  4.572, 0, 6.096;                        !- X,Y,Z Vertex 4 {m}

OS:Surface,
  {30740471-def3-4c6b-b37b-25627d867708}, !- Handle
  Surface 6,                              !- Name
  RoofCeiling,                            !- Surface Type
  ,                                       !- Construction Name
  {2b8608d1-709d-4b2a-88e2-aa8e5bd5f10d}, !- Space Name
  Outdoors,                               !- Outside Boundary Condition
  ,                                       !- Outside Boundary Condition Object
  SunExposed,                             !- Sun Exposure
  WindExposed,                            !- Wind Exposure
  ,                                       !- View Factor to Ground
  ,                                       !- Number of Vertices
  4.572, 0, 6.096,                        !- X,Y,Z Vertex 1 {m}
  4.572, 4.572, 6.096,                    !- X,Y,Z Vertex 2 {m}
  0, 4.572, 6.096,                        !- X,Y,Z Vertex 3 {m}
  0, 0, 6.096;                            !- X,Y,Z Vertex 4 {m}

OS:ThermalZone,
  {02084d08-7ece-4c60-8c61-506037f30d73}, !- Handle
  Zone RetailStandalone Retail A end_a - Story Ground, !- Name
  1,                                      !- Multiplier
  ,                                       !- Ceiling Height {m}
  ,                                       !- Volume {m3}
  ,                                       !- Floor Area {m2}
  ,                                       !- Zone Inside Convection Algorithm
  ,                                       !- Zone Outside Convection Algorithm
  ,                                       !- Zone Conditioning Equipment List Name
  {9cbcd749-c864-4705-bac1-1384044abf75}, !- Zone Air Inlet Port List
  {1f71990a-0442-48a5-9803-c39579cc6adb}, !- Zone Air Exhaust Port List
  {da8b454e-d987-4602-85ae-e1f6eea69af5}, !- Zone Air Node Name
  {56881eca-45b1-4984-be09-d88e86ab0635}, !- Zone Return Air Port List
  ,                                       !- Primary Daylighting Control Name
  ,                                       !- Fraction of Zone Controlled by Primary Daylighting Control
  ,                                       !- Secondary Daylighting Control Name
  ,                                       !- Fraction of Zone Controlled by Secondary Daylighting Control
  ,                                       !- Illuminance Map Name
  ,                                       !- Group Rendering Name
  ,                                       !- Thermostat Name
  No;                                     !- Use Ideal Air Loads

OS:Node,
  {5927b91c-424c-44e9-9553-dc4eea529320}, !- Handle
  Node 1,                                 !- Name
  {da8b454e-d987-4602-85ae-e1f6eea69af5}, !- Inlet Port
  ;                                       !- Outlet Port

OS:Connection,
  {da8b454e-d987-4602-85ae-e1f6eea69af5}, !- Handle
  {02084d08-7ece-4c60-8c61-506037f30d73}, !- Source Object
  11,                                     !- Outlet Port
  {5927b91c-424c-44e9-9553-dc4eea529320}, !- Target Object
  2;                                      !- Inlet Port

OS:PortList,
  {9cbcd749-c864-4705-bac1-1384044abf75}, !- Handle
  {02084d08-7ece-4c60-8c61-506037f30d73}; !- HVAC Component

OS:PortList,
  {1f71990a-0442-48a5-9803-c39579cc6adb}, !- Handle
  {02084d08-7ece-4c60-8c61-506037f30d73}; !- HVAC Component

OS:PortList,
  {56881eca-45b1-4984-be09-d88e86ab0635}, !- Handle
  {02084d08-7ece-4c60-8c61-506037f30d73}; !- HVAC Component

OS:Sizing:Zone,
  {547ca057-5cce-4937-b09a-c53a8314638e}, !- Handle
  {02084d08-7ece-4c60-8c61-506037f30d73}, !- Zone or ZoneList Name
  SupplyAirTemperature,                   !- Zone Cooling Design Supply Air Temperature Input Method
  14,                                     !- Zone Cooling Design Supply Air Temperature {C}
  11.11,                                  !- Zone Cooling Design Supply Air Temperature Difference {deltaC}
  SupplyAirTemperature,                   !- Zone Heating Design Supply Air Temperature Input Method
  40,                                     !- Zone Heating Design Supply Air Temperature {C}
  11.11,                                  !- Zone Heating Design Supply Air Temperature Difference {deltaC}
  0.0085,                                 !- Zone Cooling Design Supply Air Humidity Ratio {kg-H2O/kg-air}
  0.008,                                  !- Zone Heating Design Supply Air Humidity Ratio {kg-H2O/kg-air}
  ,                                       !- Zone Heating Sizing Factor
  ,                                       !- Zone Cooling Sizing Factor
  DesignDay,                              !- Cooling Design Air Flow Method
  ,                                       !- Cooling Design Air Flow Rate {m3/s}
  ,                                       !- Cooling Minimum Air Flow per Zone Floor Area {m3/s-m2}
  ,                                       !- Cooling Minimum Air Flow {m3/s}
  ,                                       !- Cooling Minimum Air Flow Fraction
  DesignDay,                              !- Heating Design Air Flow Method
  ,                                       !- Heating Design Air Flow Rate {m3/s}
  ,                                       !- Heating Maximum Air Flow per Zone Floor Area {m3/s-m2}
  ,                                       !- Heating Maximum Air Flow {m3/s}
  ,                                       !- Heating Maximum Air Flow Fraction
  No,                                     !- Account for Dedicated Outdoor Air System
  NeutralSupplyAir,                       !- Dedicated Outdoor Air System Control Strategy
  autosize,                               !- Dedicated Outdoor Air Low Setpoint Temperature for Design {C}
  autosize;                               !- Dedicated Outdoor Air High Setpoint Temperature for Design {C}

OS:ZoneHVAC:EquipmentList,
  {c1fbd085-d64b-4251-b8a1-620242b6b208}, !- Handle
  Zone HVAC Equipment List 1,             !- Name
  {02084d08-7ece-4c60-8c61-506037f30d73}; !- Thermal Zone

OS:Space,
  {e3dc58cb-39a5-4b6f-b6b9-357247ec16fd}, !- Handle
  RetailStandalone Retail B end_a - Story Ground, !- Name
  {2a71586b-3972-425f-bea0-5ec89b0499d1}, !- Space Type Name
  ,                                       !- Default Construction Set Name
  ,                                       !- Default Schedule Set Name
  -0,                                     !- Direction of Relative North {deg}
  -24.384,                                !- X Origin {m}
  -14.478,                                !- Y Origin {m}
  0,                                      !- Z Origin {m}
  {4009ad69-0a93-415e-9a25-ea301fc870a0}, !- Building Story Name
  {ad1b5a0e-982c-41a0-994a-8e241ae7f637}; !- Thermal Zone Name

OS:Surface,
  {0b1ce210-3aeb-4d1e-b452-1e5bb5e7187b}, !- Handle
  Surface 7,                              !- Name
  Floor,                                  !- Surface Type
  ,                                       !- Construction Name
  {e3dc58cb-39a5-4b6f-b6b9-357247ec16fd}, !- Space Name
  Ground,                                 !- Outside Boundary Condition
  ,                                       !- Outside Boundary Condition Object
  NoSun,                                  !- Sun Exposure
  NoWind,                                 !- Wind Exposure
  ,                                       !- View Factor to Ground
  ,                                       !- Number of Vertices
  0, 1.77635683940025e-15, 0,             !- X,Y,Z Vertex 1 {m}
  0, 28.956, 0,                           !- X,Y,Z Vertex 2 {m}
  4.572, 28.956, 0,                       !- X,Y,Z Vertex 3 {m}
  4.572, 1.77635683940025e-15, 0;         !- X,Y,Z Vertex 4 {m}

OS:Surface,
  {c0ff6739-633a-4abf-ac59-13fba643a18e}, !- Handle
  Surface 8,                              !- Name
  Wall,                                   !- Surface Type
  ,                                       !- Construction Name
  {e3dc58cb-39a5-4b6f-b6b9-357247ec16fd}, !- Space Name
  Outdoors,                               !- Outside Boundary Condition
  ,                                       !- Outside Boundary Condition Object
  SunExposed,                             !- Sun Exposure
  WindExposed,                            !- Wind Exposure
  ,                                       !- View Factor to Ground
  ,                                       !- Number of Vertices
  0, 28.956, 6.096,                       !- X,Y,Z Vertex 1 {m}
  0, 28.956, 0,                           !- X,Y,Z Vertex 2 {m}
  0, 1.77635683940025e-15, 0,             !- X,Y,Z Vertex 3 {m}
  0, 1.77635683940025e-15, 6.096;         !- X,Y,Z Vertex 4 {m}

OS:Surface,
  {18569d95-7f5f-44ac-82f1-be5052af36a4}, !- Handle
  Surface 9,                              !- Name
  Wall,                                   !- Surface Type
  ,                                       !- Construction Name
  {e3dc58cb-39a5-4b6f-b6b9-357247ec16fd}, !- Space Name
  Surface,                                !- Outside Boundary Condition
  {d28a09f3-264c-412b-8e6c-d51da3254130}, !- Outside Boundary Condition Object
  NoSun,                                  !- Sun Exposure
  NoWind,                                 !- Wind Exposure
  ,                                       !- View Factor to Ground
  ,                                       !- Number of Vertices
  4.572, 28.956, 6.096,                   !- X,Y,Z Vertex 1 {m}
  4.572, 28.956, 0,                       !- X,Y,Z Vertex 2 {m}
  0, 28.956, 0,                           !- X,Y,Z Vertex 3 {m}
  0, 28.956, 6.096;                       !- X,Y,Z Vertex 4 {m}

OS:Surface,
  {f20d046f-45d3-4bfb-8d77-f880e15d562a}, !- Handle
  Surface 10,                             !- Name
  Wall,                                   !- Surface Type
  ,                                       !- Construction Name
  {e3dc58cb-39a5-4b6f-b6b9-357247ec16fd}, !- Space Name
  Surface,                                !- Outside Boundary Condition
  {ad6abe9e-478e-4b1c-a889-59f423d61f71}, !- Outside Boundary Condition Object
  NoSun,                                  !- Sun Exposure
  NoWind,                                 !- Wind Exposure
  ,                                       !- View Factor to Ground
  ,                                       !- Number of Vertices
  4.572, 1.77635683940025e-15, 6.096,     !- X,Y,Z Vertex 1 {m}
  4.572, 1.77635683940025e-15, 0,         !- X,Y,Z Vertex 2 {m}
  4.572, 28.956, 0,                       !- X,Y,Z Vertex 3 {m}
  4.572, 28.956, 6.096;                   !- X,Y,Z Vertex 4 {m}

OS:Surface,
  {171ec4c1-def3-4eee-b667-1e2cb8a54df6}, !- Handle
  Surface 11,                             !- Name
  Wall,                                   !- Surface Type
  ,                                       !- Construction Name
  {e3dc58cb-39a5-4b6f-b6b9-357247ec16fd}, !- Space Name
  Surface,                                !- Outside Boundary Condition
  {334a73e9-13f4-42cc-96d8-e0003181848a}, !- Outside Boundary Condition Object
  NoSun,                                  !- Sun Exposure
  NoWind,                                 !- Wind Exposure
  ,                                       !- View Factor to Ground
  ,                                       !- Number of Vertices
  0, 1.77635683940025e-15, 6.096,         !- X,Y,Z Vertex 1 {m}
  0, 1.77635683940025e-15, 0,             !- X,Y,Z Vertex 2 {m}
  4.572, 1.77635683940025e-15, 0,         !- X,Y,Z Vertex 3 {m}
  4.572, 1.77635683940025e-15, 6.096;     !- X,Y,Z Vertex 4 {m}

OS:Surface,
  {7ca4c9a0-4d1c-4251-ac26-fffbd82f4c5c}, !- Handle
  Surface 12,                             !- Name
  RoofCeiling,                            !- Surface Type
  ,                                       !- Construction Name
  {e3dc58cb-39a5-4b6f-b6b9-357247ec16fd}, !- Space Name
  Outdoors,                               !- Outside Boundary Condition
  ,                                       !- Outside Boundary Condition Object
  SunExposed,                             !- Sun Exposure
  WindExposed,                            !- Wind Exposure
  ,                                       !- View Factor to Ground
  ,                                       !- Number of Vertices
  4.572, 1.77635683940025e-15, 6.096,     !- X,Y,Z Vertex 1 {m}
  4.572, 28.956, 6.096,                   !- X,Y,Z Vertex 2 {m}
  0, 28.956, 6.096,                       !- X,Y,Z Vertex 3 {m}
  0, 1.77635683940025e-15, 6.096;         !- X,Y,Z Vertex 4 {m}

OS:ThermalZone,
  {ad1b5a0e-982c-41a0-994a-8e241ae7f637}, !- Handle
  Zone RetailStandalone Retail B end_a - Story Ground, !- Name
  1,                                      !- Multiplier
  ,                                       !- Ceiling Height {m}
  ,                                       !- Volume {m3}
  ,                                       !- Floor Area {m2}
  ,                                       !- Zone Inside Convection Algorithm
  ,                                       !- Zone Outside Convection Algorithm
  ,                                       !- Zone Conditioning Equipment List Name
  {afa7ea09-279e-4e12-9876-28fbcd464208}, !- Zone Air Inlet Port List
  {19e1139c-a804-465c-a1b8-6134da4ee3d9}, !- Zone Air Exhaust Port List
  {d4b17cbb-a6c2-4d35-8ad8-145fb2361d5d}, !- Zone Air Node Name
  {71fe7305-d857-4c6f-86a3-6912cea60948}, !- Zone Return Air Port List
  ,                                       !- Primary Daylighting Control Name