
OS:Version,
  {f3731988-2966-402a-9ae6-e7d7cbeb96a6}, !- Handle
  2.9.0;                                  !- Version Identifier

OS:WeatherFile,
  {f869b362-d3b0-47b1-b5b3-090a48635178}, !- Handle
  Climate Zone 1,                         !- City
  CA,                                     !- State Province Region
  USA,                                    !- Country
  CTZRV2,                                 !- Data Source
  725945,                                 !- WMO Number
  40.8,                                   !- Latitude {deg}
  -124.2,                                 !- Longitude {deg}
  -8,                                     !- Time Zone {hr}
  13,                                     !- Elevation {m}
  file:///R:/NREL/BuildingSync-gem/spec/weather/CZ01RV2.epw, !- Url
  ;                                       !- Checksum

OS:Site,
  {4723aff7-4ada-4fa1-8c38-62d31e073f27}, !- Handle
  Climate Zone 1_CA_USA,                  !- Name
  40.8,                                   !- Latitude {deg}
  -124.2,                                 !- Longitude {deg}
  -8,                                     !- Time Zone {hr}
  13,                                     !- Elevation {m}
  ;                                       !- Terrain

OS:Site:WaterMainsTemperature,
  {57135660-0183-40d5-b01f-5e8f4c08b63a}, !- Handle
  Correlation,                            !- Calculation Method
  ,                                       !- Temperature Schedule Name
  11.9916666666667,                       !- Annual Average Outdoor Air Temperature {C}
  5.2;                                    !- Maximum Difference In Monthly Average Outdoor Air Temperatures {deltaC}

OS:ClimateZones,
  {c7230da0-ede9-45ba-927c-210ecf3c57bc}, !- Handle
  ,                                       !- Active Institution
  ,                                       !- Active Year
  ASHRAE,                                 !- Climate Zone Institution Name 1
  ANSI/ASHRAE Standard 169,               !- Climate Zone Document Name 1
  2006,                                   !- Climate Zone Document Year 1
  4A;                                     !- Climate Zone Value 1

OS:SizingPeriod:DesignDay,
  {1abd2892-caf0-4bba-a15a-876ca317b253}, !- Handle
  Climate Zone 1 Ann Htg 99.6% Condns DB, !- Name
  -0.6,                                   !- Maximum Dry-Bulb Temperature {C}
  0,                                      !- Daily Dry-Bulb Temperature Range {deltaC}
  -0.6,                                   !- Humidity Indicating Conditions at Maximum Dry-Bulb
  101169,                                 !- Barometric Pressure {Pa}
  2,                                      !- Wind Speed {m/s}
  90,                                     !- Wind Direction {deg}
  0,                                      !- Sky Clearness
  0,                                      !- Rain Indicator
  0,                                      !- Snow Indicator
  21,                                     !- Day of Month
  12,                                     !- Month
  WinterDesignDay,                        !- Day Type
  0,                                      !- Daylight Saving Time Indicator
  Wetbulb,                                !- Humidity Indicating Type
  ,                                       !- Humidity Indicating Day Schedule Name
  DefaultMultipliers,                     !- Dry-Bulb Temperature Range Modifier Type
  ,                                       !- Dry-Bulb Temperature Range Modifier Schedule Name
  ASHRAEClearSky;                         !- Solar Model Indicator

OS:SizingPeriod:DesignDay,
  {7283e900-bf4d-49d3-9062-3841329cbd18}, !- Handle
  Climate Zone 1 Ann Clg .4% Condns DB=>MWB, !- Name
  21.6,                                   !- Maximum Dry-Bulb Temperature {C}
  6.5,                                    !- Daily Dry-Bulb Temperature Range {deltaC}
  15.2,                                   !- Humidity Indicating Conditions at Maximum Dry-Bulb
  101169,                                 !- Barometric Pressure {Pa}
  4.3,                                    !- Wind Speed {m/s}
  320,                                    !- Wind Direction {deg}
  0,                                      !- Sky Clearness
  0,                                      !- Rain Indicator
  0,                                      !- Snow Indicator
  21,                                     !- Day of Month
  8,                                      !- Month
  SummerDesignDay,                        !- Day Type
  0,                                      !- Daylight Saving Time Indicator
  Wetbulb,                                !- Humidity Indicating Type
  ,                                       !- Humidity Indicating Day Schedule Name
  DefaultMultipliers,                     !- Dry-Bulb Temperature Range Modifier Type
  ,                                       !- Dry-Bulb Temperature Range Modifier Schedule Name
  ASHRAETau,                              !- Solar Model Indicator
  ,                                       !- Beam Solar Day Schedule Name
  ,                                       !- Diffuse Solar Day Schedule Name
  0.365,                                  !- ASHRAE Taub {dimensionless}
  2.513;                                  !- ASHRAE Taud {dimensionless}

OS:SizingPeriod:DesignDay,
  {791f7df9-27e7-4862-8530-5ee124c42462}, !- Handle
  Climate Zone 1 Ann Clg .4% Condns WB=>MDB, !- Name
  19.5,                                   !- Maximum Dry-Bulb Temperature {C}
  6.5,                                    !- Daily Dry-Bulb Temperature Range {deltaC}
  16.8,                                   !- Humidity Indicating Conditions at Maximum Dry-Bulb
  101169,                                 !- Barometric Pressure {Pa}
  4.3,                                    !- Wind Speed {m/s}
  320,                                    !- Wind Direction {deg}
  0,                                      !- Sky Clearness
  0,                                      !- Rain Indicator
  0,                                      !- Snow Indicator
  21,                                     !- Day of Month
  8,                                      !- Month
  SummerDesignDay,                        !- Day Type
  0,                                      !- Daylight Saving Time Indicator
  Wetbulb,                                !- Humidity Indicating Type
  ,                                       !- Humidity Indicating Day Schedule Name
  DefaultMultipliers,                     !- Dry-Bulb Temperature Range Modifier Type
  ,                                       !- Dry-Bulb Temperature Range Modifier Schedule Name
  ASHRAETau,                              !- Solar Model Indicator
  ,                                       !- Beam Solar Day Schedule Name
  ,                                       !- Diffuse Solar Day Schedule Name
  0.365,                                  !- ASHRAE Taub {dimensionless}
  2.513;                                  !- ASHRAE Taud {dimensionless}

OS:YearDescription,
  {387adc9f-48a2-4ac8-a40d-d34fc8a4f8ee}, !- Handle
  2020,                                   !- Calendar Year
  ,                                       !- Day of Week for Start Day
  ;                                       !- Is Leap Year

OS:SpaceType,
  {5ce22a4f-d91c-407a-b341-27e6e030dfe2}, !- Handle
  Retail Back_Space,                      !- Name
  ,                                       !- Default Construction Set Name
  ,                                       !- Default Schedule Set Name
  ,                                       !- Group Rendering Name
  ,                                       !- Design Specification Outdoor Air Object Name
  ,                                       !- Standards Template
  Retail,                                 !- Standards Building Type
  Back_Space;                             !- Standards Space Type

OS:SpaceType,
  {f8620fec-f724-4003-b08c-7db49cb24436}, !- Handle
  Retail Entry,                           !- Name
  ,                                       !- Default Construction Set Name
  ,                                       !- Default Schedule Set Name
  ,                                       !- Group Rendering Name
  ,                                       !- Design Specification Outdoor Air Object Name
  ,                                       !- Standards Template
  Retail,                                 !- Standards Building Type
  Entry;                                  !- Standards Space Type

OS:SpaceType,
  {5502ea6e-e743-475d-a4a8-4ed0f0e07846}, !- Handle
  Retail Point_of_Sale,                   !- Name
  ,                                       !- Default Construction Set Name
  ,                                       !- Default Schedule Set Name
  ,                                       !- Group Rendering Name
  ,                                       !- Design Specification Outdoor Air Object Name
  ,                                       !- Standards Template
  Retail,                                 !- Standards Building Type
  Point_of_Sale;                          !- Standards Space Type

OS:SpaceType,
  {1a8a901c-df65-4acb-8e0a-e8992c9e7c91}, !- Handle
  Retail Retail,                          !- Name
  ,                                       !- Default Construction Set Name
  ,                                       !- Default Schedule Set Name
  ,                                       !- Group Rendering Name
  ,                                       !- Design Specification Outdoor Air Object Name
  ,                                       !- Standards Template
  Retail,                                 !- Standards Building Type
  Retail;                                 !- Standards Space Type

OS:Building,
  {5358ef6b-42c4-426f-8963-1ff653f36938}, !- Handle
  DOE Ref 1980-2004|RetailStandalone,     !- Name
  ,                                       !- Building Sector Type
  ,                                       !- North Axis {deg}
  ,                                       !- Nominal Floor to Floor Height {m}
  ,                                       !- Space Type Name
  ,                                       !- Default Construction Set Name
  ;                                       !- Default Schedule Set Name

OS:BuildingStory,
  {0066f9c6-09c7-4569-b032-a429304c4fdd}, !- Handle
  Story Ground,                           !- Name
  0,                                      !- Nominal Z Coordinate {m}
  6.096,                                  !- Nominal Floor to Floor Height {m}
  ,                                       !- Default Construction Set Name
  ,                                       !- Default Schedule Set Name
  ;                                       !- Group Rendering Name

OS:Space,
  {3ae0fe82-51e5-4883-a5c9-ccd40632da2e}, !- Handle
  Retail Retail A end_a - Story Ground,   !- Name
  {1a8a901c-df65-4acb-8e0a-e8992c9e7c91}, !- Space Type Name
  ,                                       !- Default Construction Set Name
  ,                                       !- Default Schedule Set Name
  -0,                                     !- Direction of Relative North {deg}
  -24.384,                                !- X Origin {m}
  -19.05,                                 !- Y Origin {m}
  0,                                      !- Z Origin {m}
  {0066f9c6-09c7-4569-b032-a429304c4fdd}, !- Building Story Name
  {dae86829-a6af-480a-8283-074a3df8c4aa}; !- Thermal Zone Name

OS:Surface,
  {765ba119-1ec1-4722-ab46-e0bbda13911b}, !- Handle
  Surface 1,                              !- Name
  Floor,                                  !- Surface Type
  ,                                       !- Construction Name
  {3ae0fe82-51e5-4883-a5c9-ccd40632da2e}, !- Space Name
  Ground,                                 !- Outside Boundary Condition
  ,                                       !- Outside Boundary Condition Object
  NoSun,                                  !- Sun Exposure
  NoWind,                                 !- Wind Exposure
  ,                                       !- View Factor to Ground
  ,                                       !- Number of Vertices
  0, 0, 0,                                !- X,Y,Z Vertex 1 {m}
  0, 4.572, 0,                            !- X,Y,Z Vertex 2 {m}
  4.572, 4.572, 0,                        !- X,Y,Z Vertex 3 {m}
  4.572, 0, 0;                            !- X,Y,Z Vertex 4 {m}

OS:Surface,
  {d0e8287c-c5f5-47b0-8922-3610e32e1e91}, !- Handle
  Surface 2,                              !- Name
  Wall,                                   !- Surface Type
  ,                                       !- Construction Name
  {3ae0fe82-51e5-4883-a5c9-ccd40632da2e}, !- Space Name
  Outdoors,                               !- Outside Boundary Condition
  ,                                       !- Outside Boundary Condition Object
  SunExposed,                             !- Sun Exposure
  WindExposed,                            !- Wind Exposure
  ,                                       !- View Factor to Ground
  ,                                       !- Number of Vertices
  0, 4.572, 6.096,                        !- X,Y,Z Vertex 1 {m}
  0, 4.572, 0,                            !- X,Y,Z Vertex 2 {m}
  0, 0, 0,                                !- X,Y,Z Vertex 3 {m}
  0, 0, 6.096;                            !- X,Y,Z Vertex 4 {m}

OS:Surface,
  {0daec548-e39d-4171-ba70-1d8aeb75646b}, !- Handle
  Surface 3,                              !- Name
  Wall,                                   !- Surface Type
  ,                                       !- Construction Name
  {3ae0fe82-51e5-4883-a5c9-ccd40632da2e}, !- Space Name
  Surface,                                !- Outside Boundary Condition
  {feec5685-431d-4820-86f8-2db2b8848b5d}, !- Outside Boundary Condition Object
  NoSun,                                  !- Sun Exposure
  NoWind,                                 !- Wind Exposure
  ,                                       !- View Factor to Ground
  ,                                       !- Number of Vertices
  4.572, 4.572, 6.096,                    !- X,Y,Z Vertex 1 {m}
  4.572, 4.572, 0,                        !- X,Y,Z Vertex 2 {m}
  0, 4.572, 0,                            !- X,Y,Z Vertex 3 {m}
  0, 4.572, 6.096;                        !- X,Y,Z Vertex 4 {m}

OS:Surface,
  {b7ddde35-ff79-45b3-86d8-22b2565b6921}, !- Handle
  Surface 4,                              !- Name
  Wall,                                   !- Surface Type
  ,                                       !- Construction Name
  {3ae0fe82-51e5-4883-a5c9-ccd40632da2e}, !- Space Name
  Surface,                                !- Outside Boundary Condition
  {b8d97c29-125b-4210-9143-aaf46c82bc55}, !- Outside Boundary Condition Object
  NoSun,                                  !- Sun Exposure
  NoWind,                                 !- Wind Exposure
  ,                                       !- View Factor to Ground
  ,                                       !- Number of Vertices
  4.572, 0, 6.096,                        !- X,Y,Z Vertex 1 {m}
  4.572, 0, 0,                            !- X,Y,Z Vertex 2 {m}
  4.572, 4.572, 0,                        !- X,Y,Z Vertex 3 {m}
  4.572, 4.572, 6.096;                    !- X,Y,Z Vertex 4 {m}

OS:Surface,
  {e8ea525e-90fa-446f-9d87-2e7c4afb2662}, !- Handle
  Surface 5,                              !- Name
  Wall,                                   !- Surface Type
  ,                                       !- Construction Name
  {3ae0fe82-51e5-4883-a5c9-ccd40632da2e}, !- Space Name
  Outdoors,                               !- Outside Boundary Condition
  ,                                       !- Outside Boundary Condition Object
  SunExposed,                             !- Sun Exposure
  WindExposed,                            !- Wind Exposure
  ,                                       !- View Factor to Ground
  ,                                       !- Number of Vertices
  0, 0, 6.096,                            !- X,Y,Z Vertex 1 {m}
  0, 0, 0,                                !- X,Y,Z Vertex 2 {m}
  4.572, 0, 0,                            !- X,Y,Z Vertex 3 {m}
  4.572, 0, 6.096;                        !- X,Y,Z Vertex 4 {m}

OS:Surface,
  {77578687-0c8d-4800-b4b5-dac9af1c24c8}, !- Handle
  Surface 6,                              !- Name
  RoofCeiling,                            !- Surface Type
  ,                                       !- Construction Name
  {3ae0fe82-51e5-4883-a5c9-ccd40632da2e}, !- Space Name
  Outdoors,                               !- Outside Boundary Condition
  ,                                       !- Outside Boundary Condition Object
  SunExposed,                             !- Sun Exposure
  WindExposed,                            !- Wind Exposure
  ,                                       !- View Factor to Ground
  ,                                       !- Number of Vertices
  4.572, 0, 6.096,                        !- X,Y,Z Vertex 1 {m}
  4.572, 4.572, 6.096,                    !- X,Y,Z Vertex 2 {m}
  0, 4.572, 6.096,                        !- X,Y,Z Vertex 3 {m}
  0, 0, 6.096;                            !- X,Y,Z Vertex 4 {m}

OS:ThermalZone,
  {dae86829-a6af-480a-8283-074a3df8c4aa}, !- Handle
  Zone Retail Retail A end_a - Story Ground, !- Name
  1,                                      !- Multiplier
  ,                                       !- Ceiling Height {m}
  ,                                       !- Volume {m3}
  ,                                       !- Floor Area {m2}
  ,                                       !- Zone Inside Convection Algorithm
  ,                                       !- Zone Outside Convection Algorithm
  ,                                       !- Zone Conditioning Equipment List Name
  {85f4f19b-5373-40ae-b0a4-41eca62c9788}, !- Zone Air Inlet Port List
  {4aaf3e7b-eb96-40b1-b2ef-bd12ccbf27fe}, !- Zone Air Exhaust Port List
  {e34e91d1-7c45-4b9d-8f7b-0ae0bbce3e19}, !- Zone Air Node Name
  {12562e0b-60dd-459f-9174-0a53d78ed02a}, !- Zone Return Air Port List
  ,                                       !- Primary Daylighting Control Name
  ,                                       !- Fraction of Zone Controlled by Primary Daylighting Control
  ,                                       !- Secondary Daylighting Control Name
  ,                                       !- Fraction of Zone Controlled by Secondary Daylighting Control
  ,                                       !- Illuminance Map Name
  ,                                       !- Group Rendering Name
  ,                                       !- Thermostat Name
  No;                                     !- Use Ideal Air Loads

OS:Node,
  {3d1efabd-f2fe-47f4-8e82-499d7e14f0f8}, !- Handle
  Node 1,                                 !- Name
  {e34e91d1-7c45-4b9d-8f7b-0ae0bbce3e19}, !- Inlet Port
  ;                                       !- Outlet Port

OS:Connection,
  {e34e91d1-7c45-4b9d-8f7b-0ae0bbce3e19}, !- Handle
  {f2cb5b92-cda7-4620-a547-739b40b49610}, !- Name
  {dae86829-a6af-480a-8283-074a3df8c4aa}, !- Source Object
  11,                                     !- Outlet Port
  {3d1efabd-f2fe-47f4-8e82-499d7e14f0f8}, !- Target Object
  2;                                      !- Inlet Port

OS:PortList,
  {85f4f19b-5373-40ae-b0a4-41eca62c9788}, !- Handle
  {521c1af0-ebcb-476d-ac7b-0b524517e44d}, !- Name
  {dae86829-a6af-480a-8283-074a3df8c4aa}; !- HVAC Component

OS:PortList,
  {4aaf3e7b-eb96-40b1-b2ef-bd12ccbf27fe}, !- Handle
  {c20cf54a-59f5-48db-abe4-9ad020cda6b1}, !- Name
  {dae86829-a6af-480a-8283-074a3df8c4aa}; !- HVAC Component

OS:PortList,
  {12562e0b-60dd-459f-9174-0a53d78ed02a}, !- Handle
  {c48bf541-0381-4c5f-b3a6-7f19cec355ed}, !- Name
  {dae86829-a6af-480a-8283-074a3df8c4aa}; !- HVAC Component

OS:Sizing:Zone,
  {d91ce797-b38b-40d0-a027-5da99c7426c7}, !- Handle
  {dae86829-a6af-480a-8283-074a3df8c4aa}, !- Zone or ZoneList Name
  SupplyAirTemperature,                   !- Zone Cooling Design Supply Air Temperature Input Method
  14,                                     !- Zone Cooling Design Supply Air Temperature {C}
  11.11,                                  !- Zone Cooling Design Supply Air Temperature Difference {deltaC}
  SupplyAirTemperature,                   !- Zone Heating Design Supply Air Temperature Input Method
  40,                                     !- Zone Heating Design Supply Air Temperature {C}
  11.11,                                  !- Zone Heating Design Supply Air Temperature Difference {deltaC}
  0.0085,                                 !- Zone Cooling Design Supply Air Humidity Ratio {kg-H2O/kg-air}
  0.008,                                  !- Zone Heating Design Supply Air Humidity Ratio {kg-H2O/kg-air}
  ,                                       !- Zone Heating Sizing Factor
  ,                                       !- Zone Cooling Sizing Factor
  DesignDay,                              !- Cooling Design Air Flow Method
  ,                                       !- Cooling Design Air Flow Rate {m3/s}
  ,                                       !- Cooling Minimum Air Flow per Zone Floor Area {m3/s-m2}
  ,                                       !- Cooling Minimum Air Flow {m3/s}
  ,                                       !- Cooling Minimum Air Flow Fraction
  DesignDay,                              !- Heating Design Air Flow Method
  ,                                       !- Heating Design Air Flow Rate {m3/s}
  ,                                       !- Heating Maximum Air Flow per Zone Floor Area {m3/s-m2}
  ,                                       !- Heating Maximum Air Flow {m3/s}
  ,                                       !- Heating Maximum Air Flow Fraction
  ,                                       !- Design Zone Air Distribution Effectiveness in Cooling Mode
  ,                                       !- Design Zone Air Distribution Effectiveness in Heating Mode
  No,                                     !- Account for Dedicated Outdoor Air System
  NeutralSupplyAir,                       !- Dedicated Outdoor Air System Control Strategy
  autosize,                               !- Dedicated Outdoor Air Low Setpoint Temperature for Design {C}
  autosize;                               !- Dedicated Outdoor Air High Setpoint Temperature for Design {C}

OS:ZoneHVAC:EquipmentList,
  {5c66e0be-9f86-4c6e-aeb2-aac5436829f1}, !- Handle
  Zone HVAC Equipment List 1,             !- Name
  {dae86829-a6af-480a-8283-074a3df8c4aa}; !- Thermal Zone

OS:Space,
  {66f6be17-89ea-4495-81b1-d6c695e4d675}, !- Handle
  Retail Retail B end_a - Story Ground,   !- Name
  {1a8a901c-df65-4acb-8e0a-e8992c9e7c91}, !- Space Type Name
  ,                                       !- Default Construction Set Name
  ,                                       !- Default Schedule Set Name
  -0,                                     !- Direction of Relative North {deg}
  -24.384,                                !- X Origin {m}
  -14.478,                                !- Y Origin {m}
  0,                                      !- Z Origin {m}
  {0066f9c6-09c7-4569-b032-a429304c4fdd}, !- Building Story Name
  {9582ae3d-6403-4fb5-a50c-4ac2d0ecf3f1}; !- Thermal Zone Name

OS:Surface,
  {cc6bc1f9-f3e1-4945-a2c2-dca750ad971c}, !- Handle
  Surface 7,                              !- Name
  Floor,                                  !- Surface Type
  ,                                       !- Construction Name
  {66f6be17-89ea-4495-81b1-d6c695e4d675}, !- Space Name
  Ground,                                 !- Outside Boundary Condition
  ,                                       !- Outside Boundary Condition Object
  NoSun,                                  !- Sun Exposure
  NoWind,                                 !- Wind Exposure
  ,                                       !- View Factor to Ground
  ,                                       !- Number of Vertices
  0, 1.77635683940025e-015, 0,            !- X,Y,Z Vertex 1 {m}
  0, 28.956, 0,                           !- X,Y,Z Vertex 2 {m}
  4.572, 28.956, 0,                       !- X,Y,Z Vertex 3 {m}
  4.572, 1.77635683940025e-015, 0;        !- X,Y,Z Vertex 4 {m}

OS:Surface,
  {ebf25e35-a982-41be-b580-4932e69b40b4}, !- Handle
  Surface 8,                              !- Name
  Wall,                                   !- Surface Type
  ,                                       !- Construction Name
  {66f6be17-89ea-4495-81b1-d6c695e4d675}, !- Space Name
  Outdoors,                               !- Outside Boundary Condition
  ,                                       !- Outside Boundary Condition Object
  SunExposed,                             !- Sun Exposure
  WindExposed,                            !- Wind Exposure
  ,                                       !- View Factor to Ground
  ,                                       !- Number of Vertices
  0, 28.956, 6.096,                       !- X,Y,Z Vertex 1 {m}
  0, 28.956, 0,                           !- X,Y,Z Vertex 2 {m}
  0, 1.77635683940025e-015, 0,            !- X,Y,Z Vertex 3 {m}
  0, 1.77635683940025e-015, 6.096;        !- X,Y,Z Vertex 4 {m}

OS:Surface,
  {d4e303f9-8ef9-454d-a360-8c5233088433}, !- Handle
  Surface 9,                              !- Name
  Wall,                                   !- Surface Type
  ,                                       !- Construction Name
  {66f6be17-89ea-4495-81b1-d6c695e4d675}, !- Space Name
  Surface,                                !- Outside Boundary Condition
  {54a95e03-dd05-4880-96bd-035603e1f27d}, !- Outside Boundary Condition Object
  NoSun,                                  !- Sun Exposure
  NoWind,                                 !- Wind Exposure
  ,                                       !- View Factor to Ground
  ,                                       !- Number of Vertices
  4.572, 28.956, 6.096,                   !- X,Y,Z Vertex 1 {m}
  4.572, 28.956, 0,                       !- X,Y,Z Vertex 2 {m}
  0, 28.956, 0,                           !- X,Y,Z Vertex 3 {m}
  0, 28.956, 6.096;                       !- X,Y,Z Vertex 4 {m}

OS:Surface,
  {250b08e3-8fff-4cfc-be89-9321839394f9}, !- Handle
  Surface 10,                             !- Name
  Wall,                                   !- Surface Type
  ,                                       !- Construction Name
  {66f6be17-89ea-4495-81b1-d6c695e4d675}, !- Space Name
  Surface,                                !- Outside Boundary Condition
  {ac83991b-8216-414d-b101-19aa9277754c}, !- Outside Boundary Condition Object
  NoSun,                                  !- Sun Exposure
  NoWind,                                 !- Wind Exposure
  ,                                       !- View Factor to Ground
  ,                                       !- Number of Vertices
  4.572, 1.77635683940025e-015, 6.096,    !- X,Y,Z Vertex 1 {m}
  4.572, 1.77635683940025e-015, 0,        !- X,Y,Z Vertex 2 {m}
  4.572, 28.956, 0,                       !- X,Y,Z Vertex 3 {m}
  4.572, 28.956, 6.096;                   !- X,Y,Z Vertex 4 {m}

OS:Surface,
  {feec5685-431d-4820-86f8-2db2b8848b5d}, !- Handle
  Surface 11,                             !- Name
  Wall,                                   !- Surface Type
  ,                                       !- Construction Name
  {66f6be17-89ea-4495-81b1-d6c695e4d675}, !- Space Name
  Surface,                                !- Outside Boundary Condition
  {0daec548-e39d-4171-ba70-1d8aeb75646b}, !- Outside Boundary Condition Object
  NoSun,                                  !- Sun Exposure
  NoWind,                                 !- Wind Exposure
  ,                                       !- View Factor to Ground
  ,                                       !- Number of Vertices
  0, 1.77635683940025e-015, 6.096,        !- X,Y,Z Vertex 1 {m}
  0, 1.77635683940025e-015, 0,            !- X,Y,Z Vertex 2 {m}
  4.572, 1.77635683940025e-015, 0,        !- X,Y,Z Vertex 3 {m}
  4.572, 1.77635683940025e-015, 6.096;    !- X,Y,Z Vertex 4 {m}

OS:Surface,
  {784fbcea-38cb-4a5c-a15d-c646cb7471e4}, !- Handle
  Surface 12,                             !- Name
  RoofCeiling,                            !- Surface Type
  ,                                       !- Construction Name
  {66f6be17-89ea-4495-81b1-d6c695e4d675}, !- Space Name
  Outdoors,                               !- Outside Boundary Condition
  ,                                       !- Outside Boundary Condition Object
  SunExposed,                             !- Sun Exposure
  WindExposed,                            !- Wind Exposure
  ,                                       !- View Factor to Ground
  ,                                       !- Number of Vertices
  4.572, 1.77635683940025e-015, 6.096,    !- X,Y,Z Vertex 1 {m}
  4.572, 28.956, 6.096,                   !- X,Y,Z Vertex 2 {m}
  0, 28.956, 6.096,                       !- X,Y,Z Vertex 3 {m}
  0, 1.77635683940025e-015, 6.096;        !- X,Y,Z Vertex 4 {m}

OS:ThermalZone,
  {9582ae3d-6403-4fb5-a50c-4ac2d0ecf3f1}, !- Handle
  Zone Retail Retail B end_a - Story Ground, !- Name
  1,                                      !- Multiplier
  ,                                       !- Ceiling Height {m}
  ,                                       !- Volume {m3}
  ,                                       !- Floor Area {m2}
  ,                                       !- Zone Inside Convection Algorithm
  ,                                       !- Zone Outside Convection Algorithm
  ,                                       !- Zone Conditioning Equipment List Name
  {5406f6d6-fd35-45a6-bd89-4df66979e8bd}, !- Zone Air Inlet Port List
  {a0793ee6-5bf8-4fbf-abbe-d08e66831e68}, !- Zone Air Exhaust Port List
  {37d960e6-ca1a-4c69-b2a3-67bfff79b35f}, !- Zone Air Node Name
  {824a1df5-cdcf-4741-8515-ac054d8ac53b}, !- Zone Return Air Port List
  ,                                       !- Primary Daylighting Control Name
  ,                                       !- Fraction of Zone Controlled by Primary Daylighting Control
  ,                                       !- Secondary Daylighting Control Name