
OS:Version,
  {044edff0-0a89-476e-a3ad-7a6329c63403}, !- Handle
  2.8.0;                                  !- Version Identifier

OS:WeatherFile,
  {43d4d287-ee3f-4401-aa92-a9b955524875}, !- Handle
  Climate Zone 1,                         !- City
  CA,                                     !- State Province Region
  USA,                                    !- Country
  CTZRV2,                                 !- Data Source
  725945,                                 !- WMO Number
  40.8,                                   !- Latitude {deg}
  -124.2,                                 !- Longitude {deg}
  -8,                                     !- Time Zone {hr}
  13,                                     !- Elevation {m}
  file:///E:/Bricr/BuildingSync-gem/spec/weather/CZ01RV2.epw, !- Url
  ;                                       !- Checksum

OS:Site,
  {2c4b942e-4eb1-43e1-a5d9-07849da625b4}, !- Handle
  Climate Zone 1_CA_USA,                  !- Name
  40.8,                                   !- Latitude {deg}
  -124.2,                                 !- Longitude {deg}
  -8,                                     !- Time Zone {hr}
  13,                                     !- Elevation {m}
  ;                                       !- Terrain

OS:Site:WaterMainsTemperature,
  {ebe823a4-8dd5-4634-9065-f1ba97e87075}, !- Handle
  Correlation,                            !- Calculation Method
  ,                                       !- Temperature Schedule Name
  11.9916666666667,                       !- Annual Average Outdoor Air Temperature {C}
  5.2;                                    !- Maximum Difference In Monthly Average Outdoor Air Temperatures {deltaC}

OS:SizingPeriod:DesignDay,
  {de28d1c1-2b94-43e0-906e-6bc0901ddae5}, !- Handle
  Climate Zone 1 Ann Clg .4% Condns DB=>MWB, !- Name
  21.6,                                   !- Maximum Dry-Bulb Temperature {C}
  6.5,                                    !- Daily Dry-Bulb Temperature Range {deltaC}
  15.2,                                   !- Humidity Indicating Conditions at Maximum Dry-Bulb
  101169,                                 !- Barometric Pressure {Pa}
  4.3,                                    !- Wind Speed {m/s}
  320,                                    !- Wind Direction {deg}
  0,                                      !- Sky Clearness
  0,                                      !- Rain Indicator
  0,                                      !- Snow Indicator
  21,                                     !- Day of Month
  8,                                      !- Month
  SummerDesignDay,                        !- Day Type
  0,                                      !- Daylight Saving Time Indicator
  Wetbulb,                                !- Humidity Indicating Type
  ,                                       !- Humidity Indicating Day Schedule Name
  DefaultMultipliers,                     !- Dry-Bulb Temperature Range Modifier Type
  ,                                       !- Dry-Bulb Temperature Range Modifier Schedule Name
  ASHRAETau,                              !- Solar Model Indicator
  ,                                       !- Beam Solar Day Schedule Name
  ,                                       !- Diffuse Solar Day Schedule Name
  0.365,                                  !- ASHRAE Taub {dimensionless}
  2.513;                                  !- ASHRAE Taud {dimensionless}

OS:SizingPeriod:DesignDay,
  {6f8a93d7-5b0c-4bf0-bf00-cc1cb279a510}, !- Handle
  Climate Zone 1 Ann Htg 99.6% Condns DB, !- Name
  -0.6,                                   !- Maximum Dry-Bulb Temperature {C}
  0,                                      !- Daily Dry-Bulb Temperature Range {deltaC}
  -0.6,                                   !- Humidity Indicating Conditions at Maximum Dry-Bulb
  101169,                                 !- Barometric Pressure {Pa}
  2,                                      !- Wind Speed {m/s}
  90,                                     !- Wind Direction {deg}
  0,                                      !- Sky Clearness
  0,                                      !- Rain Indicator
  0,                                      !- Snow Indicator
  21,                                     !- Day of Month
  12,                                     !- Month
  WinterDesignDay,                        !- Day Type
  0,                                      !- Daylight Saving Time Indicator
  Wetbulb,                                !- Humidity Indicating Type
  ,                                       !- Humidity Indicating Day Schedule Name
  DefaultMultipliers,                     !- Dry-Bulb Temperature Range Modifier Type
  ,                                       !- Dry-Bulb Temperature Range Modifier Schedule Name
  ASHRAEClearSky;                         !- Solar Model Indicator

OS:SizingPeriod:DesignDay,
  {348629c8-6ea5-491f-80a1-230cd7445a13}, !- Handle
  Climate Zone 1 Ann Clg .4% Condns WB=>MDB, !- Name
  19.5,                                   !- Maximum Dry-Bulb Temperature {C}
  6.5,                                    !- Daily Dry-Bulb Temperature Range {deltaC}
  16.8,                                   !- Humidity Indicating Conditions at Maximum Dry-Bulb
  101169,                                 !- Barometric Pressure {Pa}
  4.3,                                    !- Wind Speed {m/s}
  320,                                    !- Wind Direction {deg}
  0,                                      !- Sky Clearness
  0,                                      !- Rain Indicator
  0,                                      !- Snow Indicator
  21,                                     !- Day of Month
  8,                                      !- Month
  SummerDesignDay,                        !- Day Type
  0,                                      !- Daylight Saving Time Indicator
  Wetbulb,                                !- Humidity Indicating Type
  ,                                       !- Humidity Indicating Day Schedule Name
  DefaultMultipliers,                     !- Dry-Bulb Temperature Range Modifier Type
  ,                                       !- Dry-Bulb Temperature Range Modifier Schedule Name
  ASHRAETau,                              !- Solar Model Indicator
  ,                                       !- Beam Solar Day Schedule Name
  ,                                       !- Diffuse Solar Day Schedule Name
  0.365,                                  !- ASHRAE Taub {dimensionless}
  2.513;                                  !- ASHRAE Taud {dimensionless}

OS:ClimateZones,
  {23fad069-e4b6-4eeb-a4d7-023dd498b953}, !- Handle
  ,                                       !- Active Institution
  ,                                       !- Active Year
  ASHRAE,                                 !- Climate Zone Institution Name 1
  ANSI/ASHRAE Standard 169,               !- Climate Zone Document Name 1
  2006,                                   !- Climate Zone Document Year 1
  4A;                                     !- Climate Zone Value 1

OS:YearDescription,
  {6d2209e6-074e-4759-854c-06365f0982d9}, !- Handle
  2019,                                   !- Calendar Year
  ,                                       !- Day of Week for Start Day
  ;                                       !- Is Leap Year

OS:SpaceType,
  {0c7e1f41-9e64-4524-8b76-c7941108ff9b}, !- Handle
  Retail Back_Space,                      !- Name
  ,                                       !- Default Construction Set Name
  ,                                       !- Default Schedule Set Name
  {f5c92e5f-479e-4d85-bc16-e7e3fa5b5561}, !- Group Rendering Name
  ,                                       !- Design Specification Outdoor Air Object Name
  ,                                       !- Standards Template
  Retail,                                 !- Standards Building Type
  Back_Space;                             !- Standards Space Type

OS:Rendering:Color,
  {f5c92e5f-479e-4d85-bc16-e7e3fa5b5561}, !- Handle
  Retail Back_Space,                      !- Name
  120,                                    !- Rendering Red Value
  149,                                    !- Rendering Green Value
  230;                                    !- Rendering Blue Value

OS:SpaceType,
  {32aec330-ad9f-4e83-9836-d2f8af796cda}, !- Handle
  Retail Entry,                           !- Name
  ,                                       !- Default Construction Set Name
  ,                                       !- Default Schedule Set Name
  {796f20d3-f2e5-4d57-bfdc-be6fdcf387ab}, !- Group Rendering Name
  ,                                       !- Design Specification Outdoor Air Object Name
  ,                                       !- Standards Template
  Retail,                                 !- Standards Building Type
  Entry;                                  !- Standards Space Type

OS:Rendering:Color,
  {796f20d3-f2e5-4d57-bfdc-be6fdcf387ab}, !- Handle
  Retail Entry,                           !- Name
  169,                                    !- Rendering Red Value
  31,                                     !- Rendering Green Value
  31;                                     !- Rendering Blue Value

OS:SpaceType,
  {fdf57e03-2701-4044-b150-85257aeec0dd}, !- Handle
  Retail Point_of_Sale,                   !- Name
  ,                                       !- Default Construction Set Name
  ,                                       !- Default Schedule Set Name
  {5a542383-0d0a-492e-a6a2-2d0dcad98e6c}, !- Group Rendering Name
  ,                                       !- Design Specification Outdoor Air Object Name
  ,                                       !- Standards Template
  Retail,                                 !- Standards Building Type
  Point_of_Sale;                          !- Standards Space Type

OS:Rendering:Color,
  {5a542383-0d0a-492e-a6a2-2d0dcad98e6c}, !- Handle
  Retail Point_of_Sale,                   !- Name
  171,                                    !- Rendering Red Value
  222,                                    !- Rendering Green Value
  78;                                     !- Rendering Blue Value

OS:SpaceType,
  {68011507-9915-4081-9ffd-39cd5197feb3}, !- Handle
  Retail Retail,                          !- Name
  ,                                       !- Default Construction Set Name
  ,                                       !- Default Schedule Set Name
  {879243b2-4745-4d39-8a3a-1078dca28b85}, !- Group Rendering Name
  ,                                       !- Design Specification Outdoor Air Object Name
  ,                                       !- Standards Template
  Retail,                                 !- Standards Building Type
  Retail;                                 !- Standards Space Type

OS:Rendering:Color,
  {879243b2-4745-4d39-8a3a-1078dca28b85}, !- Handle
  Retail Retail,                          !- Name
  171,                                    !- Rendering Red Value
  222,                                    !- Rendering Green Value
  78;                                     !- Rendering Blue Value

OS:Building,
  {9e25c5f9-e827-499e-9e49-0cc9252bece9}, !- Handle
  DOE Ref 1980-2004|RetailStandalone,     !- Name
  ,                                       !- Building Sector Type
  ,                                       !- North Axis {deg}
  ,                                       !- Nominal Floor to Floor Height {m}
  ,                                       !- Space Type Name
  ,                                       !- Default Construction Set Name
  ;                                       !- Default Schedule Set Name

OS:BuildingStory,
  {35fe5837-10a3-4c57-977e-008bf94f52a1}, !- Handle
  Story Ground,                           !- Name
  0,                                      !- Nominal Z Coordinate {m}
  6.096,                                  !- Nominal Floor to Floor Height {m}
  ,                                       !- Default Construction Set Name
  ,                                       !- Default Schedule Set Name
  ;                                       !- Group Rendering Name

OS:Space,
  {25d8bb4b-953c-4607-894e-26c02c2cba54}, !- Handle
  Retail Retail A end_a - Story Ground,   !- Name
  {68011507-9915-4081-9ffd-39cd5197feb3}, !- Space Type Name
  ,                                       !- Default Construction Set Name
  ,                                       !- Default Schedule Set Name
  -0,                                     !- Direction of Relative North {deg}
  -24.384,                                !- X Origin {m}
  -19.05,                                 !- Y Origin {m}
  0,                                      !- Z Origin {m}
  {35fe5837-10a3-4c57-977e-008bf94f52a1}, !- Building Story Name
  {8a312b81-b1ac-4c03-b794-747e65261a26}; !- Thermal Zone Name

OS:Surface,
  {2c9e5f2a-f8d9-42d2-8e46-1fca33dc3e15}, !- Handle
  Surface 1,                              !- Name
  Floor,                                  !- Surface Type
  ,                                       !- Construction Name
  {25d8bb4b-953c-4607-894e-26c02c2cba54}, !- Space Name
  Ground,                                 !- Outside Boundary Condition
  ,                                       !- Outside Boundary Condition Object
  NoSun,                                  !- Sun Exposure
  NoWind,                                 !- Wind Exposure
  ,                                       !- View Factor to Ground
  ,                                       !- Number of Vertices
  0, 0, 0,                                !- X,Y,Z Vertex 1 {m}
  0, 4.572, 0,                            !- X,Y,Z Vertex 2 {m}
  4.572, 4.572, 0,                        !- X,Y,Z Vertex 3 {m}
  4.572, 0, 0;                            !- X,Y,Z Vertex 4 {m}

OS:Surface,
  {6cf5673e-4508-41fd-ac74-78bb9a04a9fb}, !- Handle
  Surface 2,                              !- Name
  Wall,                                   !- Surface Type
  ,                                       !- Construction Name
  {25d8bb4b-953c-4607-894e-26c02c2cba54}, !- Space Name
  Outdoors,                               !- Outside Boundary Condition
  ,                                       !- Outside Boundary Condition Object
  SunExposed,                             !- Sun Exposure
  WindExposed,                            !- Wind Exposure
  ,                                       !- View Factor to Ground
  ,                                       !- Number of Vertices
  0, 4.572, 6.096,                        !- X,Y,Z Vertex 1 {m}
  0, 4.572, 0,                            !- X,Y,Z Vertex 2 {m}
  0, 0, 0,                                !- X,Y,Z Vertex 3 {m}
  0, 0, 6.096;                            !- X,Y,Z Vertex 4 {m}

OS:Surface,
  {f7a9223f-7d00-4e7a-b29c-dbe74226c166}, !- Handle
  Surface 3,                              !- Name
  Wall,                                   !- Surface Type
  ,                                       !- Construction Name
  {25d8bb4b-953c-4607-894e-26c02c2cba54}, !- Space Name
  Surface,                                !- Outside Boundary Condition
  {b6a69596-b0f4-4e6b-8ab3-2f81cdacf390}, !- Outside Boundary Condition Object
  NoSun,                                  !- Sun Exposure
  NoWind,                                 !- Wind Exposure
  ,                                       !- View Factor to Ground
  ,                                       !- Number of Vertices
  4.572, 4.572, 6.096,                    !- X,Y,Z Vertex 1 {m}
  4.572, 4.572, 0,                        !- X,Y,Z Vertex 2 {m}
  0, 4.572, 0,                            !- X,Y,Z Vertex 3 {m}
  0, 4.572, 6.096;                        !- X,Y,Z Vertex 4 {m}

OS:Surface,
  {aeac9e9b-673b-44e6-9f3f-1eaa2f860dde}, !- Handle
  Surface 4,                              !- Name
  Wall,                                   !- Surface Type
  ,                                       !- Construction Name
  {25d8bb4b-953c-4607-894e-26c02c2cba54}, !- Space Name
  Surface,                                !- Outside Boundary Condition
  {8b18ce89-cf4d-41bc-a390-31de14f435b4}, !- Outside Boundary Condition Object
  NoSun,                                  !- Sun Exposure
  NoWind,                                 !- Wind Exposure
  ,                                       !- View Factor to Ground
  ,                                       !- Number of Vertices
  4.572, 0, 6.096,                        !- X,Y,Z Vertex 1 {m}
  4.572, 0, 0,                            !- X,Y,Z Vertex 2 {m}
  4.572, 4.572, 0,                        !- X,Y,Z Vertex 3 {m}
  4.572, 4.572, 6.096;                    !- X,Y,Z Vertex 4 {m}

OS:Surface,
  {0966399e-f408-4e79-aa4c-9e3c192f031e}, !- Handle
  Surface 5,                              !- Name
  Wall,                                   !- Surface Type
  ,                                       !- Construction Name
  {25d8bb4b-953c-4607-894e-26c02c2cba54}, !- Space Name
  Outdoors,                               !- Outside Boundary Condition
  ,                                       !- Outside Boundary Condition Object
  SunExposed,                             !- Sun Exposure
  WindExposed,                            !- Wind Exposure
  ,                                       !- View Factor to Ground
  ,                                       !- Number of Vertices
  0, 0, 6.096,                            !- X,Y,Z Vertex 1 {m}
  0, 0, 0,                                !- X,Y,Z Vertex 2 {m}
  4.572, 0, 0,                            !- X,Y,Z Vertex 3 {m}
  4.572, 0, 6.096;                        !- X,Y,Z Vertex 4 {m}

OS:Surface,
  {eac64d53-019f-49ed-a720-f551ea3ccc2f}, !- Handle
  Surface 6,                              !- Name
  RoofCeiling,                            !- Surface Type
  ,                                       !- Construction Name
  {25d8bb4b-953c-4607-894e-26c02c2cba54}, !- Space Name
  Outdoors,                               !- Outside Boundary Condition
  ,                                       !- Outside Boundary Condition Object
  SunExposed,                             !- Sun Exposure
  WindExposed,                            !- Wind Exposure
  ,                                       !- View Factor to Ground
  ,                                       !- Number of Vertices
  4.572, 0, 6.096,                        !- X,Y,Z Vertex 1 {m}
  4.572, 4.572, 6.096,                    !- X,Y,Z Vertex 2 {m}
  0, 4.572, 6.096,                        !- X,Y,Z Vertex 3 {m}
  0, 0, 6.096;                            !- X,Y,Z Vertex 4 {m}

OS:ThermalZone,
  {8a312b81-b1ac-4c03-b794-747e65261a26}, !- Handle
  Zone Retail Retail A end_a - Story Ground, !- Name
  1,                                      !- Multiplier
  ,                                       !- Ceiling Height {m}
  ,                                       !- Volume {m3}
  ,                                       !- Floor Area {m2}
  ,                                       !- Zone Inside Convection Algorithm
  ,                                       !- Zone Outside Convection Algorithm
  ,                                       !- Zone Conditioning Equipment List Name
  {e0a02239-2708-4d7a-b051-2c7cd32f8c67}, !- Zone Air Inlet Port List
  {545ddcf9-8e10-4998-adb3-3aa79eee76f8}, !- Zone Air Exhaust Port List
  {cd9d282d-d5f9-4691-94de-bc0e408dd59e}, !- Zone Air Node Name
  {a7f32327-c742-467b-a585-c8d77ea3fb7c}, !- Zone Return Air Port List
  ,                                       !- Primary Daylighting Control Name
  ,                                       !- Fraction of Zone Controlled by Primary Daylighting Control
  ,                                       !- Secondary Daylighting Control Name
  ,                                       !- Fraction of Zone Controlled by Secondary Daylighting Control
  ,                                       !- Illuminance Map Name
  ,                                       !- Group Rendering Name
  ,                                       !- Thermostat Name
  No;                                     !- Use Ideal Air Loads

OS:Node,
  {a8084eac-0c9f-43d4-b174-3d0fffa84670}, !- Handle
  Node 1,                                 !- Name
  {cd9d282d-d5f9-4691-94de-bc0e408dd59e}, !- Inlet Port
  ;                                       !- Outlet Port

OS:Connection,
  {cd9d282d-d5f9-4691-94de-bc0e408dd59e}, !- Handle
  {05683bf4-f44a-4bb3-98ed-ec073ee639b7}, !- Name
  {8a312b81-b1ac-4c03-b794-747e65261a26}, !- Source Object
  11,                                     !- Outlet Port
  {a8084eac-0c9f-43d4-b174-3d0fffa84670}, !- Target Object
  2;                                      !- Inlet Port

OS:PortList,
  {e0a02239-2708-4d7a-b051-2c7cd32f8c67}, !- Handle
  {cc739a99-c19a-4e1d-8822-9cb6d79c19b3}, !- Name
  {8a312b81-b1ac-4c03-b794-747e65261a26}; !- HVAC Component

OS:PortList,
  {545ddcf9-8e10-4998-adb3-3aa79eee76f8}, !- Handle
  {da9f9539-6b6a-4d03-9efc-2c746ec1c326}, !- Name
  {8a312b81-b1ac-4c03-b794-747e65261a26}; !- HVAC Component

OS:PortList,
  {a7f32327-c742-467b-a585-c8d77ea3fb7c}, !- Handle
  {e947ba8f-ea97-415f-baa4-940179a2aad8}, !- Name
  {8a312b81-b1ac-4c03-b794-747e65261a26}; !- HVAC Component

OS:Sizing:Zone,
  {e7720c5e-cd9f-486b-970f-8143e62ca4c7}, !- Handle
  {8a312b81-b1ac-4c03-b794-747e65261a26}, !- Zone or ZoneList Name
  SupplyAirTemperature,                   !- Zone Cooling Design Supply Air Temperature Input Method
  14,                                     !- Zone Cooling Design Supply Air Temperature {C}
  11.11,                                  !- Zone Cooling Design Supply Air Temperature Difference {deltaC}
  SupplyAirTemperature,                   !- Zone Heating Design Supply Air Temperature Input Method
  40,                                     !- Zone Heating Design Supply Air Temperature {C}
  11.11,                                  !- Zone Heating Design Supply Air Temperature Difference {deltaC}
  0.0085,                                 !- Zone Cooling Design Supply Air Humidity Ratio {kg-H2O/kg-air}
  0.008,                                  !- Zone Heating Design Supply Air Humidity Ratio {kg-H2O/kg-air}
  ,                                       !- Zone Heating Sizing Factor
  ,                                       !- Zone Cooling Sizing Factor
  DesignDay,                              !- Cooling Design Air Flow Method
  ,                                       !- Cooling Design Air Flow Rate {m3/s}
  ,                                       !- Cooling Minimum Air Flow per Zone Floor Area {m3/s-m2}
  ,                                       !- Cooling Minimum Air Flow {m3/s}
  ,                                       !- Cooling Minimum Air Flow Fraction
  DesignDay,                              !- Heating Design Air Flow Method
  ,                                       !- Heating Design Air Flow Rate {m3/s}
  ,                                       !- Heating Maximum Air Flow per Zone Floor Area {m3/s-m2}
  ,                                       !- Heating Maximum Air Flow {m3/s}
  ,                                       !- Heating Maximum Air Flow Fraction
  ,                                       !- Design Zone Air Distribution Effectiveness in Cooling Mode
  ,                                       !- Design Zone Air Distribution Effectiveness in Heating Mode
  No,                                     !- Account for Dedicated Outdoor Air System
  NeutralSupplyAir,                       !- Dedicated Outdoor Air System Control Strategy
  autosize,                               !- Dedicated Outdoor Air Low Setpoint Temperature for Design {C}
  autosize;                               !- Dedicated Outdoor Air High Setpoint Temperature for Design {C}

OS:ZoneHVAC:EquipmentList,
  {d4be38c4-9fed-44a7-bdb2-32031a4a3541}, !- Handle
  Zone HVAC Equipment List 1,             !- Name
  {8a312b81-b1ac-4c03-b794-747e65261a26}; !- Thermal Zone

OS:Space,
  {03b032e2-57e5-4b4e-884e-70896522977e}, !- Handle
  Retail Retail B end_a - Story Ground,   !- Name
  {68011507-9915-4081-9ffd-39cd5197feb3}, !- Space Type Name
  ,                                       !- Default Construction Set Name
  ,                                       !- Default Schedule Set Name
  -0,                                     !- Direction of Relative North {deg}
  -24.384,                                !- X Origin {m}
  -14.478,                                !- Y Origin {m}
  0,                                      !- Z Origin {m}
  {35fe5837-10a3-4c57-977e-008bf94f52a1}, !- Building Story Name
  {cfa79069-33dc-4e1a-ab9d-ea401ac54c64}; !- Thermal Zone Name

OS:Surface,
  {fe3cf86a-b53f-40d5-b4e4-65d7ccb84d64}, !- Handle
  Surface 7,                              !- Name
  Floor,                                  !- Surface Type
  ,                                       !- Construction Name
  {03b032e2-57e5-4b4e-884e-70896522977e}, !- Space Name
  Ground,                                 !- Outside Boundary Condition
  ,                                       !- Outside Boundary Condition Object
  NoSun,                                  !- Sun Exposure
  NoWind,                                 !- Wind Exposure
  ,                                       !- View Factor to Ground
  ,                                       !- Number of Vertices
  0, 1.77635683940025e-015, 0,            !- X,Y,Z Vertex 1 {m}
  0, 28.956, 0,                           !- X,Y,Z Vertex 2 {m}
  4.572, 28.956, 0,                       !- X,Y,Z Vertex 3 {m}
  4.572, 1.77635683940025e-015, 0;        !- X,Y,Z Vertex 4 {m}

OS:Surface,
  {b4ee10e9-ea2d-4f21-9f0d-916e03a1a904}, !- Handle
  Surface 8,                              !- Name
  Wall,                                   !- Surface Type
  ,                                       !- Construction Name
  {03b032e2-57e5-4b4e-884e-70896522977e}, !- Space Name
  Outdoors,                               !- Outside Boundary Condition
  ,                                       !- Outside Boundary Condition Object
  SunExposed,                             !- Sun Exposure
  WindExposed,                            !- Wind Exposure
  ,                                       !- View Factor to Ground
  ,                                       !- Number of Vertices
  0, 28.956, 6.096,                       !- X,Y,Z Vertex 1 {m}
  0, 28.956, 0,                           !- X,Y,Z Vertex 2 {m}
  0, 1.77635683940025e-015, 0,            !- X,Y,Z Vertex 3 {m}
  0, 1.77635683940025e-015, 6.096;        !- X,Y,Z Vertex 4 {m}

OS:Surface,
  {37a3d6f8-affd-4eb1-ba3f-3b7e2191aeb0}, !- Handle
  Surface 9,                              !- Name
  Wall,                                   !- Surface Type
  ,                                       !- Construction Name
  {03b032e2-57e5-4b4e-884e-70896522977e}, !- Space Name
  Surface,                                !- Outside Boundary Condition
  {6bc593c8-6395-46b5-b208-db6d44af797f}, !- Outside Boundary Condition Object
  NoSun,                                  !- Sun Exposure
  NoWind,                                 !- Wind Exposure
  ,                                       !- View Factor to Ground
  ,                                       !- Number of Vertices
  4.572, 28.956, 6.096,                   !- X,Y,Z Vertex 1 {m}
  4.572, 28.956, 0,                       !- X,Y,Z Vertex 2 {m}
  0, 28.956, 0,                           !- X,Y,Z Vertex 3 {m}
  0, 28.956, 6.096;                       !- X,Y,Z Vertex 4 {m}

OS:Surface,
  {9e85b91a-c025-4471-aa9f-ae4738edddcd}, !- Handle
  Surface 10,                             !- Name
  Wall,                                   !- Surface Type
  ,                                       !- Construction Name
  {03b032e2-57e5-4b4e-884e-70896522977e}, !- Space Name
  Surface,                                !- Outside Boundary Condition
  {3160febe-a4bf-4cf0-a539-c947ca2ba9b5}, !- Outside Boundary Condition Object
  NoSun,                                  !- Sun Exposure
  NoWind,                                 !- Wind Exposure
  ,                                       !- View Factor to Ground
  ,                                       !- Number of Vertices
  4.572, 1.77635683940025e-015, 6.096,    !- X,Y,Z Vertex 1 {m}
  4.572, 1.77635683940025e-015, 0,        !- X,Y,Z Vertex 2 {m}
  4.572, 28.956, 0,                       !- X,Y,Z Vertex 3 {m}
  4.572, 28.956, 6.096;                   !- X,Y,Z Vertex 4 {m}

OS:Surface,
  {b6a69596-b0f4-4e6b-8ab3-2f81cdacf390}, !- Handle
  Surface 11,                             !- Name
  Wall,                                   !- Surface Type
  ,                                       !- Construction Name
  {03b032e2-57e5-4b4e-884e-70896522977e}, !- Space Name
  Surface,                                !- Outside Boundary Condition
  {f7a9223f-7d00-4e7a-b29c-dbe74226c166}, !- Outside Boundary Condition Object
  NoSun,                                  !- Sun Exposure
  NoWind,                                 !- Wind Exposure
  ,                                       !- View Factor to Ground
  ,                                       !- Number of Vertices
  0, 1.77635683940025e-015, 6.096,        !- X,Y,Z Vertex 1 {m}
  0, 1.77635683940025e-015, 0,            !- X,Y,Z Vertex 2 {m}
  4.572, 1.77635683940025e-015, 0,        !- X,Y,Z Vertex 3 {m}
  4.572, 1.77635683940025e-015, 6.096;    !- X,Y,Z Vertex 4 {m}

OS:Surface,
  {dcc35903-25e0-4765-96dc-0ab5aed04e64}, !- Handle
  Surface 12,                             !- Name
  RoofCeiling,                            !- Surface Type
  ,                                       !- Construction Name
  {03b032e2-57e5-4b4e-884e-70896522977e}, !- Space Name
  Outdoors,                               !- Outside Boundary Condition
  ,                                       !- Outside Boundary Condition Object
  SunExposed,                             !- Sun Exposure
  WindExposed,                            !- Wind Exposure
  ,                                       !- View Factor to Ground
  ,                                       !- Number of Vertices
  4.572, 1.77635683940025e-015, 6.096,    !- X,Y,Z Vertex 1 {m}
  4.572, 28.956, 6.096,                   !- X,Y,Z Vertex 2 {m}